<?xml version="1.0" encoding="UTF-8"?>

<!-- generated on 2023-04-27 16:21:06 by Eclipse SUMO netedit Version 1.17.0
-->

<routes xmlns:xsi="http://www.w3.org/2001/XMLSchema-instance" xsi:noNamespaceSchemaLocation="http://sumo.dlr.de/xsd/routes_file.xsd">
    <!-- Vehicles, persons and containers (sorted by depart) -->
    <flow id="f_0" begin="0.00" from="-E7" to="-E7" end="3600.00" vehsPerHour="50.00"/>
    <flow id="f_1" begin="0.00" from="-E7" to="E9" end="3600.00" vehsPerHour="50.00"/>
    <flow id="f_10" begin="0.00" from="-E8" to="E7" end="3600.00" vehsPerHour="50"/>
    <flow id="f_11" begin="0.00" from="-E8" to="-E6" end="3600.00" vehsPerHour="50"/>
    <flow id="f_12" begin="0.00" from="-E8" to="E9" end="3600.00" vehsPerHour="50"/>
    <flow id="f_2" begin="0.00" from="-E7" to="E8" end="3600.00" vehsPerHour="50"/>
    <flow id="f_3" begin="0.00" from="-E7" to="-E6" end="3600.00" vehsPerHour="50"/>
    <flow id="f_4" begin="0.00" from="E6" to="E7" end="3600.00" vehsPerHour="50"/>
    <flow id="f_5" begin="0.00" from="E6" to="E9" end="3600.00" vehsPerHour="50"/>
    <flow id="f_6" begin="0.00" from="E6" to="E8" end="3600.00" vehsPerHour="50"/>
    <flow id="f_7" begin="0.00" from="-E9" to="E8" end="3600.00" vehsPerHour="50"/>
    <flow id="f_8" begin="0.00" from="-E9" to="E7" end="3600.00" vehsPerHour="50"/>
    <flow id="f_9" begin="0.00" from="-E9" to="-E6" end="3600.00" vehsPerHour="50"/>
</routes>
