<?xml version="1.0" encoding="UTF-8"?>

<!-- generated on 2023-04-27 11:26:17 by Eclipse SUMO netconvert Version 1.17.0
<configuration xmlns:xsi="http://www.w3.org/2001/XMLSchema-instance" xsi:noNamespaceSchemaLocation="http://sumo.dlr.de/xsd/netconvertConfiguration.xsd">

    <input>
        <type-files value="${SUMO_HOME}/data/typemap/osmNetconvert.typ.xml"/>
        <osm-files value="osm_bbox.osm.xml.gz"/>
    </input>

    <output>
        <output-file value="osm.net.xml.gz"/>
        <output.street-names value="true"/>
        <output.original-names value="true"/>
    </output>

    <projection>
        <proj.utm value="true"/>
    </projection>

    <processing>
        <geometry.remove value="true"/>
        <roundabouts.guess value="true"/>
    </processing>

    <tls_building>
        <tls.discard-simple value="true"/>
        <tls.join value="true"/>
        <tls.guess-signals value="true"/>
        <tls.default-type value="actuated"/>
    </tls_building>

    <ramp_guessing>
        <ramps.guess value="true"/>
    </ramp_guessing>

    <junctions>
        <junctions.join value="true"/>
        <junctions.corner-detail value="5"/>
    </junctions>

</configuration>
-->

<net version="1.16" junctionCornerDetail="5" limitTurnSpeed="5.50" xmlns:xsi="http://www.w3.org/2001/XMLSchema-instance" xsi:noNamespaceSchemaLocation="http://sumo.dlr.de/xsd/net_file.xsd">

    <location netOffset="-656190.09,-5335088.08" convBoundary="0.00,0.00,1137.09,1355.23" origBoundary="17.100464,48.149774,17.115361,48.162034" projParameter="+proj=utm +zone=33 +ellps=WGS84 +datum=WGS84 +units=m +no_defs"/>

    <type id="highway.bridleway" priority="1" numLanes="1" speed="2.78" allow="pedestrian" oneway="1" width="2.00"/>
    <type id="highway.bus_guideway" priority="1" numLanes="1" speed="27.78" allow="bus" oneway="1"/>
    <type id="highway.cycleway" priority="1" numLanes="1" speed="5.56" allow="bicycle" oneway="0" width="1.00"/>
    <type id="highway.footway" priority="1" numLanes="1" speed="2.78" allow="pedestrian" oneway="1" width="2.00"/>
    <type id="highway.ford" priority="1" numLanes="1" speed="2.78" allow="army" oneway="0"/>
    <type id="highway.living_street" priority="2" numLanes="1" speed="2.78" disallow="tram rail_urban rail rail_electric rail_fast ship" oneway="0"/>
    <type id="highway.motorway" priority="14" numLanes="2" speed="39.44" allow="private emergency authority army vip passenger hov taxi bus coach delivery truck trailer motorcycle evehicle custom1 custom2" oneway="1"/>
    <type id="highway.motorway_link" priority="9" numLanes="1" speed="22.22" allow="private emergency authority army vip passenger hov taxi bus coach delivery truck trailer motorcycle evehicle custom1 custom2" oneway="1"/>
    <type id="highway.path" priority="1" numLanes="1" speed="5.56" allow="pedestrian bicycle" oneway="0" width="2.00"/>
    <type id="highway.pedestrian" priority="1" numLanes="1" speed="2.78" allow="pedestrian" oneway="1" width="2.00"/>
    <type id="highway.primary" priority="12" numLanes="2" speed="27.78" disallow="tram rail_urban rail rail_electric rail_fast ship" oneway="0"/>
    <type id="highway.primary_link" priority="7" numLanes="1" speed="22.22" disallow="tram rail_urban rail rail_electric rail_fast ship" oneway="0"/>
    <type id="highway.raceway" priority="15" numLanes="2" speed="83.33" allow="vip" oneway="0"/>
    <type id="highway.residential" priority="3" numLanes="1" speed="13.89" disallow="tram rail_urban rail rail_electric rail_fast ship" oneway="0"/>
    <type id="highway.secondary" priority="11" numLanes="1" speed="27.78" disallow="tram rail_urban rail rail_electric rail_fast ship" oneway="0"/>
    <type id="highway.secondary_link" priority="6" numLanes="1" speed="22.22" disallow="tram rail_urban rail rail_electric rail_fast ship" oneway="0"/>
    <type id="highway.service" priority="1" numLanes="1" speed="5.56" allow="pedestrian delivery bicycle" oneway="0"/>
    <type id="highway.stairs" priority="1" numLanes="1" speed="1.39" allow="pedestrian" oneway="1" width="2.00"/>
    <type id="highway.step" priority="1" numLanes="1" speed="1.39" allow="pedestrian" oneway="1" width="2.00"/>
    <type id="highway.steps" priority="1" numLanes="1" speed="1.39" allow="pedestrian" oneway="1" width="2.00"/>
    <type id="highway.tertiary" priority="10" numLanes="1" speed="22.22" disallow="tram rail_urban rail rail_electric rail_fast ship" oneway="0"/>
    <type id="highway.tertiary_link" priority="5" numLanes="1" speed="22.22" disallow="tram rail_urban rail rail_electric rail_fast ship" oneway="0"/>
    <type id="highway.track" priority="1" numLanes="1" speed="5.56" allow="pedestrian motorcycle moped bicycle" oneway="0"/>
    <type id="highway.trunk" priority="13" numLanes="2" speed="27.78" disallow="pedestrian bicycle tram rail_urban rail rail_electric rail_fast ship" oneway="0"/>
    <type id="highway.trunk_link" priority="8" numLanes="1" speed="22.22" disallow="pedestrian bicycle tram rail_urban rail rail_electric rail_fast ship" oneway="0"/>
    <type id="highway.unclassified" priority="4" numLanes="1" speed="13.89" disallow="tram rail_urban rail rail_electric rail_fast ship" oneway="0"/>
    <type id="highway.unsurfaced" priority="1" numLanes="1" speed="8.33" disallow="tram rail_urban rail rail_electric rail_fast ship" oneway="0"/>
    <type id="railway.highspeed" priority="21" numLanes="1" speed="69.44" allow="rail_fast" oneway="1"/>
    <type id="railway.light_rail" priority="19" numLanes="1" speed="27.78" allow="rail_urban" oneway="1"/>
    <type id="railway.preserved" priority="16" numLanes="1" speed="27.78" allow="rail" oneway="1"/>
    <type id="railway.rail" priority="20" numLanes="1" speed="44.44" allow="rail" oneway="1"/>
    <type id="railway.subway" priority="18" numLanes="1" speed="27.78" allow="rail_urban" oneway="1"/>
    <type id="railway.tram" priority="17" numLanes="1" speed="13.89" allow="tram" oneway="1"/>

    <edge id=":10093591338_0" function="internal">
        <lane id=":10093591338_0_0" index="0" allow="pedestrian delivery bicycle" speed="3.65" length="4.67" shape="651.60,564.16 651.88,562.74 652.46,562.07 653.36,562.13 654.55,562.93"/>
    </edge>
    <edge id=":10093591352_0" function="internal">
        <lane id=":10093591352_0_0" index="0" allow="pedestrian delivery bicycle" speed="5.56" length="5.67" shape="634.43,748.06 633.91,749.66 633.57,750.76 633.32,751.89 633.05,753.54"/>
    </edge>
    <edge id=":10093591352_1" function="internal">
        <lane id=":10093591352_1_0" index="0" allow="pedestrian delivery bicycle" speed="3.65" length="1.44" shape="634.43,748.06 633.30,748.95"/>
    </edge>
    <edge id=":10093591352_4" function="internal">
        <lane id=":10093591352_4_0" index="0" allow="pedestrian delivery bicycle" speed="3.65" length="3.23" shape="633.30,748.95 632.41,749.08 631.78,748.46 631.39,747.07"/>
    </edge>
    <edge id=":10093591352_2" function="internal">
        <lane id=":10093591352_2_0" index="0" allow="pedestrian delivery bicycle" speed="5.56" length="6.20" shape="629.89,753.07 630.18,751.25 630.45,750.02 630.82,748.81 631.39,747.07"/>
    </edge>
    <edge id=":10093591352_3" function="internal">
        <lane id=":10093591352_3_0" index="0" allow="pedestrian delivery bicycle" speed="3.65" length="1.44" shape="629.89,753.07 630.86,752.00"/>
    </edge>
    <edge id=":10093591352_5" function="internal">
        <lane id=":10093591352_5_0" index="0" allow="pedestrian delivery bicycle" speed="3.65" length="3.23" shape="630.86,752.00 631.71,751.72 632.44,752.24 633.05,753.54"/>
    </edge>
    <edge id=":10093591353_0" function="internal">
        <lane id=":10093591353_0_0" index="0" allow="pedestrian delivery bicycle" speed="3.65" length="4.67" shape="637.14,729.44 638.28,728.54 639.16,728.41 639.80,729.04 640.19,730.43"/>
    </edge>
    <edge id=":10168206454_0" function="internal">
        <lane id=":10168206454_0_0" index="0" allow="pedestrian delivery bicycle" speed="3.65" length="4.67" shape="584.94,572.27 583.78,571.41 583.42,570.59 583.87,569.81 585.10,569.07"/>
    </edge>
    <edge id=":10221282035_0" function="internal">
        <lane id=":10221282035_0_0" index="0" allow="pedestrian delivery bicycle" speed="3.65" length="4.67" shape="409.29,402.31 410.25,401.24 411.10,400.96 411.84,401.47 412.45,402.77"/>
    </edge>
    <edge id=":10221282037_0" function="internal">
        <lane id=":10221282037_0_0" index="0" allow="pedestrian delivery bicycle" speed="3.65" length="4.67" shape="394.63,383.64 395.73,382.71 396.61,382.55 397.27,383.16 397.70,384.53"/>
    </edge>
    <edge id=":10221282051_0" function="internal">
        <lane id=":10221282051_0_0" index="0" allow="pedestrian delivery bicycle" speed="5.56" length="3.19" shape="401.44,454.21 400.40,457.22"/>
    </edge>
    <edge id=":10221282051_1" function="internal">
        <lane id=":10221282051_1_0" index="0" allow="pedestrian delivery bicycle" speed="3.65" length="1.44" shape="401.44,454.21 400.30,455.08"/>
    </edge>
    <edge id=":10221282051_4" function="internal">
        <lane id=":10221282051_4_0" index="0" allow="pedestrian delivery bicycle" speed="3.65" length="3.23" shape="400.30,455.08 399.41,455.20 398.78,454.56 398.42,453.16"/>
    </edge>
    <edge id=":10221282051_2" function="internal">
        <lane id=":10221282051_2_0" index="0" allow="pedestrian delivery bicycle" speed="5.56" length="3.18" shape="397.38,456.17 398.42,453.16"/>
    </edge>
    <edge id=":10221282051_3" function="internal">
        <lane id=":10221282051_3_0" index="0" allow="pedestrian delivery bicycle" speed="3.65" length="1.44" shape="397.38,456.17 398.53,455.30"/>
    </edge>
    <edge id=":10221282051_5" function="internal">
        <lane id=":10221282051_5_0" index="0" allow="pedestrian delivery bicycle" speed="3.65" length="3.23" shape="398.53,455.30 399.41,455.19 400.04,455.83 400.40,457.22"/>
    </edge>
    <edge id=":10221282052_0" function="internal">
        <lane id=":10221282052_0_0" index="0" allow="pedestrian delivery bicycle" speed="3.65" length="4.67" shape="395.89,470.32 394.74,471.20 393.85,471.31 393.23,470.68 392.86,469.28"/>
    </edge>
    <edge id=":10221282059_0" function="internal">
        <lane id=":10221282059_0_0" index="0" allow="pedestrian delivery bicycle" speed="3.65" length="4.67" shape="392.43,400.47 393.50,399.50 394.37,399.31 395.05,399.90 395.53,401.26"/>
    </edge>
    <edge id=":10297337627_0" function="internal">
        <lane id=":10297337627_0_0" index="0" allow="pedestrian delivery bicycle" speed="3.65" length="4.67" shape="432.63,512.16 433.66,513.16 433.91,514.02 433.37,514.74 432.04,515.30"/>
    </edge>
    <edge id=":1038302410_0" function="internal">
        <lane id=":1038302410_0_0" index="0" allow="pedestrian delivery bicycle" speed="6.25" length="1.00" shape="715.19,460.66 715.13,460.37 715.10,460.17 715.08,459.97 715.08,459.67"/>
    </edge>
    <edge id=":1038302410_1" function="internal">
        <lane id=":1038302410_1_0" index="0" disallow="tram rail_urban rail rail_electric rail_fast ship" speed="3.65" length="1.44" shape="715.19,460.66 715.72,459.32"/>
    </edge>
    <edge id=":1038302410_3" function="internal">
        <lane id=":1038302410_3_0" index="0" disallow="tram rail_urban rail rail_electric rail_fast ship" speed="3.65" length="3.23" shape="715.72,459.32 716.41,458.76 717.28,458.98 718.32,459.98"/>
    </edge>
    <edge id=":1038302410_2" function="internal">
        <lane id=":1038302410_2_0" index="0" allow="pedestrian delivery bicycle" speed="6.25" length="0.33" shape="718.28,459.65 718.28,459.75 718.29,459.82 718.30,459.88 718.32,459.98"/>
    </edge>
    <edge id=":1049058048_0" function="internal">
        <lane id=":1049058048_0_0" index="0" disallow="tram rail_urban rail rail_electric rail_fast ship" speed="8.33" length="4.42" width="4.60" shape="232.80,497.04 233.70,496.09 234.29,495.40 234.79,494.65 235.43,493.52"/>
    </edge>
    <edge id=":1069142417_0" function="internal">
        <lane id=":1069142417_0_0" index="0" allow="pedestrian delivery bicycle" speed="3.65" length="4.67" shape="477.47,582.53 476.34,583.42 475.46,583.56 474.82,582.93 474.43,581.55"/>
    </edge>
    <edge id=":1375035095_0" function="internal">
        <lane id=":1375035095_0_0" index="0" allow="rail" speed="44.44" length="37.77" shape="344.77,1032.61 346.64,1025.55 349.28,1014.28 351.86,1002.99 353.56,995.88"/>
    </edge>
    <edge id=":1375035095_1" function="internal">
        <lane id=":1375035095_1_0" index="0" allow="rail" speed="44.44" length="37.67" shape="344.77,1032.61 356.75,996.89"/>
    </edge>
    <edge id=":1375035214_0" function="internal">
        <lane id=":1375035214_0_0" index="0" allow="rail" speed="44.44" length="37.41" shape="332.97,1067.64 334.87,1060.65 337.54,1049.51 340.09,1038.34 341.66,1031.25"/>
    </edge>
    <edge id=":1375035214_1" function="internal">
        <lane id=":1375035214_1_0" index="0" allow="rail" speed="44.44" length="36.76" shape="332.97,1067.64 344.71,1032.80"/>
    </edge>
    <edge id=":1375035267_0" function="internal">
        <lane id=":1375035267_0_0" index="0" allow="rail" speed="44.44" length="2.89" shape="320.26,1098.72 321.57,1096.15"/>
    </edge>
    <edge id=":1375035267_1" function="internal">
        <lane id=":1375035267_1_0" index="0" allow="rail" speed="44.44" length="2.89" shape="320.26,1098.72 321.60,1096.16"/>
    </edge>
    <edge id=":1449194865_0" function="internal">
        <lane id=":1449194865_0_0" index="0" allow="tram" speed="5.56" length="6.14" shape="572.91,629.21 571.48,630.34 570.52,631.14 569.61,632.00 568.37,633.34"/>
    </edge>
    <edge id=":1524742055_0" function="internal">
        <lane id=":1524742055_0_0" index="0" disallow="tram rail_urban rail rail_electric rail_fast ship" speed="13.89" length="5.44" shape="772.97,438.15 770.67,433.22"/>
    </edge>
    <edge id=":1524742055_1" function="internal">
        <lane id=":1524742055_1_0" index="0" disallow="tram rail_urban rail rail_electric rail_fast ship" speed="13.89" length="5.16" shape="773.62,431.97 775.79,436.65"/>
    </edge>
    <edge id=":1763149350_0" function="internal">
        <lane id=":1763149350_0_0" index="0" allow="pedestrian delivery bicycle" speed="3.65" length="4.67" shape="277.32,1121.59 276.04,1122.24 275.14,1122.19 274.64,1121.45 274.54,1120.01"/>
    </edge>
    <edge id=":1763149650_0" function="internal">
        <lane id=":1763149650_0_0" index="0" allow="pedestrian delivery bicycle" speed="5.56" length="2.34" shape="429.87,645.79 429.88,646.35 429.49,646.66 428.97,646.97 428.59,647.54"/>
    </edge>
    <edge id=":1763149650_1" function="internal">
        <lane id=":1763149650_1_0" index="0" allow="pedestrian delivery bicycle" speed="3.82" length="2.05" shape="429.87,645.79 428.73,646.94 428.31,647.05"/>
    </edge>
    <edge id=":1763149650_4" function="internal">
        <lane id=":1763149650_4_0" index="0" allow="pedestrian delivery bicycle" speed="3.82" length="3.19" shape="428.31,647.05 427.76,647.20 426.97,646.59 426.36,645.09"/>
    </edge>
    <edge id=":1763149650_2" function="internal">
        <lane id=":1763149650_2_0" index="0" allow="pedestrian delivery bicycle" speed="5.26" length="1.80" shape="425.51,646.68 426.36,645.09"/>
    </edge>
    <edge id=":1763149650_3" function="internal">
        <lane id=":1763149650_3_0" index="0" allow="pedestrian delivery bicycle" speed="3.65" length="1.44" shape="425.51,646.68 426.60,645.74"/>
    </edge>
    <edge id=":1763149650_5" function="internal">
        <lane id=":1763149650_5_0" index="0" allow="pedestrian delivery bicycle" speed="3.65" length="3.23" shape="426.60,645.74 427.48,645.57 428.14,646.17 428.59,647.54"/>
    </edge>
    <edge id=":1763149659_0" function="internal">
        <lane id=":1763149659_0_0" index="0" allow="pedestrian delivery bicycle" speed="5.56" length="6.61" shape="399.26,780.88 397.11,781.13 395.44,781.65 394.24,782.43 393.54,783.47"/>
    </edge>
    <edge id=":1763149659_1" function="internal">
        <lane id=":1763149659_1_0" index="0" allow="pedestrian delivery bicycle" speed="5.56" length="11.78" shape="399.26,780.88 395.89,780.57 393.77,779.25 392.88,776.90 393.23,773.54"/>
    </edge>
    <edge id=":1763149659_2" function="internal">
        <lane id=":1763149659_2_0" index="0" allow="pedestrian delivery bicycle" speed="3.65" length="4.67" shape="399.26,780.88 398.02,780.14 397.58,779.36 397.94,778.54 399.10,777.68"/>
    </edge>
    <edge id=":1763149659_3" function="internal">
        <lane id=":1763149659_3_0" index="0" allow="pedestrian delivery bicycle" speed="4.79" length="5.40" shape="396.34,774.32 396.17,775.86 396.58,776.93 397.56,777.54 399.10,777.68"/>
    </edge>
    <edge id=":1763149659_4" function="internal">
        <lane id=":1763149659_4_0" index="0" allow="pedestrian delivery bicycle" speed="5.56" length="9.59" shape="396.34,774.32 395.65,777.08 395.16,778.97 394.56,780.82 393.54,783.47"/>
    </edge>
    <edge id=":1763149659_5" function="internal">
        <lane id=":1763149659_5_0" index="0" allow="pedestrian delivery bicycle" speed="3.65" length="4.67" shape="396.34,774.32 395.27,775.28 394.39,775.48 393.72,774.89 393.23,773.54"/>
    </edge>
    <edge id=":1763149659_6" function="internal">
        <lane id=":1763149659_6_0" index="0" allow="pedestrian delivery bicycle" speed="5.56" length="9.16" shape="390.56,782.29 391.54,779.75 392.11,777.98 392.58,776.18 393.23,773.54"/>
    </edge>
    <edge id=":1763149659_7" function="internal">
        <lane id=":1763149659_7_0" index="0" allow="pedestrian delivery bicycle" speed="5.56" length="10.25" shape="390.56,782.29 391.73,780.40 393.54,779.01 396.00,778.10 399.10,777.68"/>
    </edge>
    <edge id=":1763149659_8" function="internal">
        <lane id=":1763149659_8_0" index="0" allow="pedestrian delivery bicycle" speed="3.65" length="4.67" shape="390.56,782.29 391.75,781.47 392.64,781.39 393.24,782.06 393.54,783.47"/>
    </edge>
    <edge id=":18049798_0" function="internal">
        <lane id=":18049798_0_0" index="0" allow="pedestrian delivery bicycle" speed="4.29" length="5.23" shape="426.27,644.91 425.86,644.60 425.26,645.12 424.45,646.45 423.46,648.59"/>
    </edge>
    <edge id=":18049798_1" function="internal">
        <lane id=":18049798_1_0" index="0" allow="pedestrian delivery bicycle" speed="3.82" length="5.25" shape="426.27,644.91 427.42,643.76 428.39,643.49 429.18,644.11 429.80,645.61"/>
    </edge>
    <edge id=":18049798_2" function="internal">
        <lane id=":18049798_2_0" index="0" allow="pedestrian delivery bicycle" speed="9.72" length="18.70" shape="437.31,630.29 432.78,633.68 430.01,637.36 429.02,641.34 429.80,645.61"/>
    </edge>
    <edge id=":18049798_3" function="internal">
        <lane id=":18049798_3_0" index="0" disallow="tram rail_urban rail rail_electric rail_fast ship" speed="13.89" length="23.93" shape="437.31,630.29 432.08,634.03 428.64,637.92 426.07,642.58 423.46,648.59"/>
        <lane id=":18049798_3_1" index="1" disallow="tram rail_urban rail rail_electric rail_fast ship" speed="13.89" length="23.93" shape="434.64,628.16 429.37,632.03 425.84,636.22 423.18,641.18 420.51,647.33"/>
    </edge>
    <edge id=":18049798_5" function="internal">
        <lane id=":18049798_5_0" index="0" allow="pedestrian delivery bicycle" speed="9.72" length="19.92" shape="430.87,626.01 429.39,632.42 428.73,637.61 428.87,641.90 429.80,645.61"/>
    </edge>
    <edge id=":18049798_6" function="internal">
        <lane id=":18049798_6_0" index="0" disallow="tram rail_urban rail rail_electric rail_fast ship" speed="13.89" length="23.57" shape="430.87,626.01 429.18,632.32 427.67,637.48 425.91,642.55 423.46,648.59"/>
        <lane id=":18049798_6_1" index="1" disallow="tram rail_urban rail rail_electric rail_fast ship" speed="13.89" length="23.57" shape="427.78,625.19 426.11,631.43 424.66,636.44 422.95,641.35 420.51,647.33"/>
    </edge>
    <edge id=":2157696479_0" function="internal">
        <lane id=":2157696479_0_0" index="0" disallow="tram rail_urban rail rail_electric rail_fast ship" speed="2.78" length="9.04" shape="271.75,767.02 269.27,766.81 267.35,767.46 265.99,768.97 265.20,771.33"/>
    </edge>
    <edge id=":2157696479_1" function="internal">
        <lane id=":2157696479_1_0" index="0" disallow="tram rail_urban rail rail_electric rail_fast ship" speed="2.78" length="14.21" shape="271.75,767.02 268.07,765.63 265.60,763.46 264.36,760.49 264.34,756.72"/>
    </edge>
    <edge id=":2157696479_2" function="internal">
        <lane id=":2157696479_2_0" index="0" disallow="tram rail_urban rail rail_electric rail_fast ship" speed="2.78" length="4.67" shape="271.75,767.02 270.76,765.97 270.55,765.10 271.12,764.41 272.47,763.90"/>
    </edge>
    <edge id=":2157696479_3" function="internal">
        <lane id=":2157696479_3_0" index="0" disallow="tram rail_urban rail rail_electric rail_fast ship" speed="2.78" length="9.36" shape="267.51,757.17 267.53,759.62 268.36,761.56 270.01,762.98 272.47,763.90"/>
    </edge>
    <edge id=":2157696479_4" function="internal">
        <lane id=":2157696479_4_0" index="0" disallow="tram rail_urban rail rail_electric rail_fast ship" speed="2.78" length="14.34" shape="267.51,757.17 265.20,771.33"/>
    </edge>
    <edge id=":2157696479_5" function="internal">
        <lane id=":2157696479_5_0" index="0" disallow="tram rail_urban rail rail_electric rail_fast ship" speed="2.78" length="4.67" shape="267.51,757.17 266.55,758.25 265.70,758.53 264.96,758.02 264.34,756.72"/>
    </edge>
    <edge id=":2157696479_6" function="internal">
        <lane id=":2157696479_6_0" index="0" disallow="tram rail_urban rail rail_electric rail_fast ship" speed="2.78" length="14.21" shape="262.05,770.75 264.34,756.72"/>
    </edge>
    <edge id=":2157696479_7" function="internal">
        <lane id=":2157696479_7_0" index="0" disallow="tram rail_urban rail rail_electric rail_fast ship" speed="2.78" length="14.36" shape="262.05,770.75 263.31,766.99 265.47,764.60 268.52,763.57 272.47,763.90"/>
    </edge>
    <edge id=":2157696479_8" function="internal">
        <lane id=":2157696479_8_0" index="0" disallow="tram rail_urban rail rail_electric rail_fast ship" speed="2.78" length="4.67" shape="262.05,770.75 263.05,769.71 263.91,769.46 264.63,770.00 265.20,771.33"/>
    </edge>
    <edge id=":2157696482_0" function="internal">
        <lane id=":2157696482_0_0" index="0" disallow="tram rail_urban rail rail_electric rail_fast ship" speed="2.78" length="11.58" shape="262.29,805.45 259.96,802.34 258.40,799.60 257.60,797.21 257.55,795.19"/>
    </edge>
    <edge id=":2157696482_1" function="internal">
        <lane id=":2157696482_1_0" index="0" disallow="tram rail_urban rail rail_electric rail_fast ship" speed="2.78" length="7.32" shape="260.70,795.77 260.74,797.00 261.26,798.49 262.27,800.23 263.77,802.22"/>
    </edge>
    <edge id=":2157696489_0" function="internal">
        <lane id=":2157696489_0_0" index="0" allow="pedestrian delivery bicycle" speed="1.39" length="4.67" shape="299.08,821.34 300.36,821.99 300.85,822.74 300.55,823.58 299.45,824.51"/>
    </edge>
    <edge id=":2157696499_0" function="internal">
        <lane id=":2157696499_0_0" index="0" allow="pedestrian delivery bicycle" speed="1.39" length="4.67" shape="303.33,846.15 304.49,847.01 304.85,847.83 304.41,848.60 303.17,849.35"/>
    </edge>
    <edge id=":2157696526_0" function="internal">
        <lane id=":2157696526_0_0" index="0" disallow="tram rail_urban rail rail_electric rail_fast ship" speed="2.78" length="4.67" shape="280.97,865.80 280.12,866.97 279.31,867.33 278.52,866.90 277.77,865.67"/>
    </edge>
    <edge id=":2222547176_0" function="internal">
        <lane id=":2222547176_0_0" index="0" allow="pedestrian delivery bicycle" speed="3.65" length="4.67" shape="400.15,549.78 400.72,551.10 400.62,551.99 399.85,552.44 398.41,552.46"/>
    </edge>
    <edge id=":2250554476_0" function="internal">
        <lane id=":2250554476_0_0" index="0" allow="pedestrian delivery bicycle" speed="3.65" length="4.67" shape="206.35,791.16 207.75,790.83 208.61,791.09 208.92,791.93 208.68,793.35"/>
    </edge>
    <edge id=":2262764712_0" function="internal">
        <lane id=":2262764712_0_0" index="0" allow="pedestrian delivery bicycle" speed="3.65" length="4.67" shape="709.99,241.44 711.28,242.09 711.77,242.84 711.47,243.68 710.38,244.62"/>
    </edge>
    <edge id=":2262764733_0" function="internal">
        <lane id=":2262764733_0_0" index="0" allow="pedestrian delivery bicycle" speed="4.17" length="4.99" shape="644.87,367.88 639.96,368.75"/>
    </edge>
    <edge id=":2262764733_1" function="internal">
        <lane id=":2262764733_1_0" index="0" allow="pedestrian delivery bicycle" speed="3.65" length="4.67" shape="644.87,367.88 643.54,367.31 643.01,366.60 643.25,365.74 644.29,364.73"/>
    </edge>
    <edge id=":2262764733_2" function="internal">
        <lane id=":2262764733_2_0" index="0" allow="pedestrian delivery bicycle" speed="4.17" length="4.94" shape="639.43,365.60 644.29,364.73"/>
    </edge>
    <edge id=":2262764733_3" function="internal">
        <lane id=":2262764733_3_0" index="0" allow="pedestrian delivery bicycle" speed="3.65" length="4.67" shape="639.43,365.60 640.75,366.18 641.27,366.91 641.01,367.76 639.96,368.75"/>
    </edge>
    <edge id=":2262764736_0" function="internal">
        <lane id=":2262764736_0_0" index="0" allow="pedestrian delivery bicycle" speed="4.17" length="5.03" shape="684.29,363.80 683.87,362.48 683.13,361.63 682.06,361.23 680.68,361.28"/>
    </edge>
    <edge id=":2262764736_1" function="internal">
        <lane id=":2262764736_1_0" index="0" allow="pedestrian delivery bicycle" speed="4.17" length="9.45" shape="684.29,363.80 682.56,354.50"/>
    </edge>
    <edge id=":2262764736_2" function="internal">
        <lane id=":2262764736_2_0" index="0" allow="pedestrian delivery bicycle" speed="3.65" length="4.67" shape="684.29,363.80 684.88,362.48 685.60,361.95 686.46,362.21 687.44,363.26"/>
    </edge>
    <edge id=":2262764736_3" function="internal">
        <lane id=":2262764736_3_0" index="0" allow="pedestrian delivery bicycle" speed="4.17" length="9.56" shape="685.69,353.86 687.44,363.26"/>
    </edge>
    <edge id=":2262764736_4" function="internal">
        <lane id=":2262764736_4_0" index="0" allow="pedestrian delivery bicycle" speed="4.17" length="10.25" shape="685.69,353.86 685.86,356.68 685.08,358.85 683.35,360.39 680.68,361.28"/>
    </edge>
    <edge id=":2262764736_5" function="internal">
        <lane id=":2262764736_5_0" index="0" allow="pedestrian delivery bicycle" speed="3.65" length="4.67" shape="685.69,353.86 685.15,355.20 684.44,355.75 683.58,355.52 682.56,354.50"/>
    </edge>
    <edge id=":2262764736_6" function="internal">
        <lane id=":2262764736_6_0" index="0" allow="pedestrian delivery bicycle" speed="4.17" length="5.02" shape="680.10,358.14 681.41,357.70 682.26,356.95 682.64,355.88 682.56,354.50"/>
    </edge>
    <edge id=":2262764736_7" function="internal">
        <lane id=":2262764736_7_0" index="0" allow="pedestrian delivery bicycle" speed="4.17" length="10.24" shape="680.10,358.14 682.92,358.02 685.08,358.84 686.59,360.59 687.44,363.26"/>
    </edge>
    <edge id=":2262764736_8" function="internal">
        <lane id=":2262764736_8_0" index="0" allow="pedestrian delivery bicycle" speed="3.65" length="4.67" shape="680.10,358.14 681.43,358.71 681.97,359.42 681.72,360.28 680.68,361.28"/>
    </edge>
    <edge id=":2262764737_0" function="internal">
        <lane id=":2262764737_0_0" index="0" allow="pedestrian delivery bicycle" speed="4.86" length="0.20" shape="733.35,370.11 733.55,370.10"/>
    </edge>
    <edge id=":2262764737_1" function="internal">
        <lane id=":2262764737_1_0" index="0" allow="pedestrian delivery bicycle" speed="4.86" length="0.36" shape="733.04,366.94 732.68,366.98"/>
    </edge>
    <edge id=":2262764740_0" function="internal">
        <lane id=":2262764740_0_0" index="0" allow="pedestrian delivery bicycle" speed="4.17" length="9.21" shape="686.60,378.57 685.25,369.45"/>
    </edge>
    <edge id=":2262764740_1" function="internal">
        <lane id=":2262764740_1_0" index="0" allow="pedestrian delivery bicycle" speed="4.17" length="10.27" shape="686.60,378.57 686.64,375.75 687.58,373.63 689.42,372.23 692.15,371.53"/>
    </edge>
    <edge id=":2262764740_2" function="internal">
        <lane id=":2262764740_2_0" index="0" allow="pedestrian delivery bicycle" speed="3.65" length="4.67" shape="686.60,378.57 687.24,377.27 687.98,376.78 688.83,377.07 689.77,378.16"/>
    </edge>
    <edge id=":2262764740_3" function="internal">
        <lane id=":2262764740_3_0" index="0" allow="pedestrian delivery bicycle" speed="4.17" length="5.03" shape="692.49,374.72 691.15,375.06 690.25,375.74 689.79,376.78 689.77,378.16"/>
    </edge>
    <edge id=":2262764740_4" function="internal">
        <lane id=":2262764740_4_0" index="0" allow="pedestrian delivery bicycle" speed="4.17" length="10.08" shape="692.49,374.72 689.70,374.64 687.56,373.73 686.08,372.01 685.25,369.45"/>
    </edge>
    <edge id=":2262764740_5" function="internal">
        <lane id=":2262764740_5_0" index="0" allow="pedestrian delivery bicycle" speed="3.65" length="4.67" shape="692.49,374.72 691.21,374.05 690.73,373.29 691.04,372.46 692.15,371.53"/>
    </edge>
    <edge id=":2262764740_6" function="internal">
        <lane id=":2262764740_6_0" index="0" allow="pedestrian delivery bicycle" speed="4.17" length="5.14" shape="688.40,368.92 688.83,370.19 689.59,371.05 690.70,371.50 692.15,371.53"/>
    </edge>
    <edge id=":2262764740_7" function="internal">
        <lane id=":2262764740_7_0" index="0" allow="pedestrian delivery bicycle" speed="4.17" length="9.34" shape="688.40,368.92 689.77,378.16"/>
    </edge>
    <edge id=":2262764740_8" function="internal">