<?xml version="1.0" encoding="UTF-8"?>

<!-- generated on 2022-11-14 22:24:15 by Eclipse SUMO netedit Version 1.13.0
<configuration xmlns:xsi="http://www.w3.org/2001/XMLSchema-instance" xsi:noNamespaceSchemaLocation="http://sumo.dlr.de/xsd/netconvertConfiguration.xsd">

    <input>
        <sumo-net-file value="C:\Users\Lenovo%20T470\Documents\skola\Bakalarka\hrajkanie%20sa\sumo\demoAAA.net.xml"/>
    </input>

    <output>
        <output-file value="C:\Users\Lenovo%20T470\Documents\skola\Bakalarka\hrajkanie%20sa\sumo\demoAAA.net.xml"/>
    </output>

    <processing>
        <geometry.min-radius.fix.railways value="false"/>
        <geometry.max-grade.fix value="false"/>
        <offset.disable-normalization value="true"/>
        <lefthand value="false"/>
    </processing>

    <junctions>
        <no-turnarounds value="true"/>
        <junctions.corner-detail value="5"/>
        <junctions.limit-turn-speed value="5.5"/>
        <rectangular-lane-cut value="false"/>
    </junctions>

    <pedestrian>
        <walkingareas value="false"/>
    </pedestrian>

    <report>
        <aggregate-warnings value="5"/>
    </report>

</configuration>
-->

<net version="1.9" junctionCornerDetail="5" limitTurnSpeed="5.50" xmlns:xsi="http://www.w3.org/2001/XMLSchema-instance" xsi:noNamespaceSchemaLocation="http://sumo.dlr.de/xsd/net_file.xsd">

    <location netOffset="0.00,0.00" convBoundary="-362.07,-78.92,452.31,403.75" origBoundary="-10000000000.00,-10000000000.00,10000000000.00,10000000000.00" projParameter="!"/>

    <edge id=":J0_0" function="internal">
        <lane id=":J0_0_0" index="0" speed="13.89" length="0.66" shape="323.90,-61.22 323.72,-61.31 323.60,-61.36 323.47,-61.38 323.27,-61.40"/>
    </edge>
    <edge id=":J0_1" function="internal">
        <lane id=":J0_1_0" index="0" speed="8.86" length="1.97" shape="323.49,-64.59 324.07,-64.54 324.47,-64.47 324.84,-64.33 325.36,-64.06"/>
    </edge>
    <edge id=":J1_0" function="internal">
        <lane id=":J1_0_0" index="0" speed="6.17" length="6.02" shape="451.00,0.74 452.31,1.64 453.17,2.77 453.58,4.13 453.54,5.72"/>
    </edge>
    <edge id=":J1_1" function="internal">
        <lane id=":J1_1_0" index="0" speed="3.95" length="2.01" shape="450.38,5.24 450.39,4.71 450.25,4.26 449.97,3.88 449.53,3.58"/>
    </edge>
    <edge id=":J10_0" function="internal">
        <lane id=":J10_0_0" index="0" speed="11.41" length="23.02" shape="-98.63,-8.09 -97.70,-12.28 -94.68,-16.07 -89.58,-19.45 -82.41,-22.43"/>
    </edge>
    <edge id=":J10_1" function="internal">
        <lane id=":J10_1_0" index="0" speed="5.56" length="9.41" shape="-80.36,-16.37 -82.97,-15.11 -83.99,-13.62 -83.41,-11.92 -81.23,-9.99"/>
    </edge>
    <edge id=":J10_2" function="internal">
        <lane id=":J10_2_0" index="0" speed="9.77" length="16.68" shape="-81.38,-19.40 -86.20,-17.31 -89.61,-14.75 -91.62,-11.73 -92.23,-8.25"/>
    </edge>
    <edge id=":J11_0" function="internal">
        <lane id=":J11_0_0" index="0" speed="6.72" length="6.76" shape="-87.15,70.40 -86.89,72.17 -86.20,73.63 -85.09,74.78 -83.55,75.63"/>
    </edge>
    <edge id=":J11_1" function="internal">
        <lane id=":J11_1_0" index="0" speed="13.89" length="7.71" shape="-90.35,70.48 -90.28,78.19"/>
    </edge>
    <edge id=":J11_2" function="internal">
        <lane id=":J11_2_0" index="0" speed="6.64" length="6.69" shape="-100.13,75.91 -98.61,75.02 -97.54,73.84 -96.92,72.38 -96.74,70.63"/>
    </edge>
    <edge id=":J11_3" function="internal">
        <lane id=":J11_3_0" index="0" speed="13.89" length="7.62" shape="-93.48,78.18 -93.55,70.56"/>
    </edge>
    <edge id=":J12_0" function="internal">
        <lane id=":J12_0_0" index="0" speed="7.16" length="5.78" shape="-93.30,123.80 -94.26,122.80 -95.42,122.10 -96.80,121.68 -98.39,121.55"/>
    </edge>
    <edge id=":J12_1" function="internal">
        <lane id=":J12_1_0" index="0" speed="13.89" length="6.47" shape="-91.95,118.59 -98.42,118.35"/>
    </edge>
    <edge id=":J12_2" function="internal">
        <lane id=":J12_2_0" index="0" speed="13.89" length="6.68" shape="-98.44,115.08 -91.77,115.40"/>
    </edge>
    <edge id=":J13_0" function="internal">
        <lane id=":J13_0_0" index="0" speed="13.89" length="9.37" shape="30.96,128.59 28.20,128.37 26.29,128.40 24.40,128.71 21.70,129.33"/>
    </edge>
    <edge id=":J13_1" function="internal">
        <lane id=":J13_1_0" index="0" speed="13.89" length="9.95" shape="31.27,125.41 21.33,125.05"/>
    </edge>
    <edge id=":J13_2" function="internal">
        <lane id=":J13_2_0" index="0" speed="13.89" length="10.36" shape="21.82,116.89 24.64,117.92 26.69,118.46 28.82,118.74 31.90,119.04"/>
    </edge>
    <edge id=":J13_3" function="internal">
        <lane id=":J13_3_0" index="0" speed="13.89" length="10.08" shape="21.51,121.85 31.59,122.22"/>
    </edge>
    <edge id=":J14_0" function="internal">
        <lane id=":J14_0_0" index="0" speed="7.37" length="8.53" shape="-96.87,159.28 -97.18,156.87 -97.98,154.93 -99.27,153.47 -101.07,152.49"/>
    </edge>
    <edge id=":J14_1" function="internal">
        <lane id=":J14_1_0" index="0" speed="13.89" length="9.61" shape="-93.67,159.22 -93.76,149.61"/>
    </edge>
    <edge id=":J14_2" function="internal">
        <lane id=":J14_2_0" index="0" speed="6.56" length="7.74" shape="-82.94,153.52 -84.87,154.25 -86.24,155.42 -87.04,157.03 -87.28,159.09"/>
    </edge>
    <edge id=":J14_3" function="internal">
        <lane id=":J14_3_0" index="0" speed="13.89" length="9.53" shape="-90.56,149.62 -90.47,159.15"/>
    </edge>
    <edge id=":J15_0" function="internal">
        <lane id=":J15_0_0" index="0" speed="13.89" length="10.45" shape="-89.72,196.17 -90.17,199.10 -91.35,200.92 -92.80,202.68 -94.04,205.45"/>
    </edge>
    <edge id=":J15_1" function="internal">
        <lane id=":J15_1_0" index="0" speed="13.89" length="9.01" shape="-97.13,204.61 -96.50,202.20 -96.18,200.51 -96.09,198.80 -96.12,196.30"/>
        <lane id=":J15_1_1" index="1" speed="13.89" length="9.01" shape="-97.13,204.61 -95.94,202.05 -94.53,200.48 -93.36,198.89 -92.92,196.24"/>
    </edge>
    <edge id=":J17_0" function="internal">
        <lane id=":J17_0_0" index="0" speed="13.89" length="9.23" shape="102.47,-76.44 99.94,-76.58 98.19,-76.51 96.48,-76.13 94.07,-75.35"/>
        <lane id=":J17_0_1" index="1" speed="13.89" length="9.23" shape="102.47,-76.44 99.62,-77.10 97.67,-78.11 95.77,-78.78 93.05,-78.38"/>
    </edge>
    <edge id=":J17_2" function="internal">
        <lane id=":J17_2_0" index="0" speed="13.89" length="11.04" shape="92.02,-81.41 94.99,-81.86 97.26,-81.25 99.59,-80.28 102.69,-79.63"/>
    </edge>
    <edge id=":J18_0" function="internal">
        <lane id=":J18_0_0" index="0" speed="13.89" length="6.36" shape="101.37,132.89 99.55,132.87 98.34,133.69 97.10,134.62 95.21,134.94"/>
        <lane id=":J18_0_1" index="1" speed="13.89" length="6.36" shape="101.37,132.89 99.67,132.40 98.49,132.12 97.29,131.94 95.53,131.75"/>
    </edge>
    <edge id=":J18_2" function="internal">
        <lane id=":J18_2_0" index="0" speed="13.89" length="7.17" shape="96.16,125.38 98.19,126.08 99.26,127.34 100.32,128.73 102.27,129.81"/>
        <lane id=":J18_2_1" index="1" speed="13.89" length="7.17" shape="95.84,128.57 97.78,128.77 99.10,128.97 100.40,129.28 102.27,129.81"/>
    </edge>
    <edge id=":J19_0" function="internal">
        <lane id=":J19_0_0" index="0" speed="13.89" length="0.66" shape="-327.84,173.71 -327.99,173.84 -328.09,173.94 -328.16,174.05 -328.25,174.22"/>
    </edge>
    <edge id=":J19_1" function="internal">
        <lane id=":J19_1_0" index="0" speed="8.82" length="1.98" shape="-331.11,172.79 -330.84,172.27 -330.62,171.93 -330.34,171.64 -329.89,171.25"/>
    </edge>
    <edge id=":J2_0" function="internal">
        <lane id=":J2_0_0" index="0" speed="7.45" length="2.65" shape="435.80,122.73 435.66,123.50 435.50,124.02 435.22,124.48 434.73,125.09"/>
    </edge>
    <edge id=":J2_1" function="internal">
        <lane id=":J2_1_0" index="0" speed="13.89" length="0.88" shape="432.28,123.04 432.44,122.83 432.53,122.68 432.59,122.50 432.63,122.25"/>
    </edge>
    <edge id=":J20_0" function="internal">
        <lane id=":J20_0_0" index="0" speed="6.41" length="4.51" shape="-136.18,361.62 -136.60,362.70 -137.23,363.60 -138.05,364.32 -139.09,364.85"/>
    </edge>
    <edge id=":J20_1" function="internal">
        <lane id=":J20_1_0" index="0" speed="4.08" length="1.50" shape="-140.24,361.86 -139.90,361.68 -139.62,361.45 -139.41,361.15 -139.27,360.79"/>
    </edge>
    <edge id=":J22_0" function="internal">
        <lane id=":J22_0_0" index="0" speed="13.89" length="0.10" shape="-40.81,17.64 -40.88,17.59"/>
    </edge>
    <edge id=":J23_0" function="internal">
        <lane id=":J23_0_0" index="0" speed="6.22" length="5.55" shape="-241.84,404.50 -243.25,404.85 -244.57,404.79 -245.81,404.32 -246.95,403.43"/>
    </edge>
    <edge id=":J23_1" function="internal">
        <lane id=":J23_1_0" index="0" speed="3.98" length="1.85" shape="-244.70,401.16 -244.32,401.45 -243.90,401.61 -243.46,401.63 -242.99,401.51"/>
    </edge>
    <edge id=":J24_0" function="internal">
        <lane id=":J24_0_0" index="0" speed="9.43" length="1.84" shape="-325.94,324.99 -326.32,324.60 -326.56,324.31 -326.74,323.98 -326.97,323.48"/>
    </edge>
    <edge id=":J24_1" function="internal">
        <lane id=":J24_1_0" index="0" speed="13.89" length="0.61" shape="-324.03,322.21 -323.95,322.38 -323.89,322.49 -323.81,322.59 -323.69,322.71"/>
    </edge>
    <edge id=":J25_0" function="internal">
        <lane id=":J25_0_0" index="0" speed="4.45" length="1.00" shape="-70.79,153.62 -71.07,153.53 -71.25,153.43 -71.40,153.29 -71.58,153.05"/>
    </edge>
    <edge id=":J26_0" function="internal">
        <lane id=":J26_0_0" index="0" speed="6.22" length="5.58" shape="365.90,207.21 364.83,208.20 363.64,208.79 362.32,208.96 360.87,208.73"/>
    </edge>
    <edge id=":J26_1" function="internal">
        <lane id=":J26_1_0" index="0" speed="3.98" length="1.86" shape="361.77,205.66 362.25,205.74 362.69,205.68 363.09,205.48 363.45,205.15"/>
    </edge>
    <edge id=":J27_0" function="internal">
        <lane id=":J27_0_0" index="0" speed="6.49" length="4.19" shape="-362.95,240.06 -363.28,239.03 -363.37,238.02 -363.22,237.01 -362.84,236.00"/>
    </edge>
    <edge id=":J27_1" function="internal">
        <lane id=":J27_1_0" index="0" speed="4.12" length="1.40" shape="-359.98,237.44 -360.10,237.77 -360.15,238.11 -360.12,238.45 -360.01,238.79"/>
    </edge>
    <edge id=":J3_0" function="internal">
        <lane id=":J3_0_0" index="0" speed="4.04" length="1.63" shape="58.67,78.23 59.01,78.49 59.25,78.80 59.39,79.17 59.44,79.58"/>
    </edge>
    <edge id=":J4_0" function="internal">
        <lane id=":J4_0_0" index="0" speed="3.99" length="1.80" shape="60.06,152.00 60.00,152.47 59.84,152.87 59.56,153.19 59.16,153.45"/>
    </edge>
    <edge id=":J5_0" function="internal">
        <lane id=":J5_0_0" index="0" speed="4.24" length="1.25" shape="8.23,178.61 7.89,178.76 7.64,178.83 7.38,178.80 7.03,178.70"/>
    </edge>
    <edge id=":J8_0" function="internal">
        <lane id=":J8_0_0" index="0" speed="7.68" length="4.01" shape="-266.94,124.55 -268.11,124.62 -268.92,124.79 -269.64,125.20 -270.57,125.93"/>
    </edge>
    <edge id=":J8_1" function="internal">
        <lane id=":J8_1_0" index="0" speed="10.67" length="8.04" shape="-272.61,123.47 -271.06,121.62 -270.20,119.94 -269.18,118.69 -267.13,118.15"/>
    </edge>
    <edge id=":J9_0" function="internal">
        <lane id=":J9_0_0" index="0" speed="13.89" length="17.61" shape="-172.23,126.67 -175.62,125.22 -179.15,123.72 -183.44,122.59 -189.08,122.25"/>
    </edge>
    <edge id=":J9_1" function="internal">
        <lane id=":J9_1_0" index="0" speed="13.89" length="17.61" shape="-171.47,122.17 -189.08,122.25"/>
        <lane id=":J9_1_1" index="1" speed="13.89" length="17.66" shape="-171.52,118.97 -189.18,119.05"/>
    </edge>
    <edge id=":J9_3" function="internal">
        <lane id=":J9_3_0" index="0" speed="13.89" length="8.56" shape="-189.37,112.65 -186.84,112.55 -185.11,112.32 -183.44,111.79 -181.10,110.82"/>
    </edge>
    <edge id=":J9_4" function="internal">
        <lane id=":J9_4_0" index="0" speed="13.89" length="17.70" shape="-189.27,115.85 -171.58,115.61"/>
    </edge>

    <edge id="-E0" from="J0" to="J17" priority="-1">
        <lane id="-E0_0" index="0" speed="13.89" length="221.31" shape="323.27,-61.40 102.47,-76.44"/>
    </edge>
    <edge id="-E1" from="J1" to="J0" priority="-1">
        <lane id="-E1_0" index="0" speed="13.89" length="141.36" shape="449.53,3.58 323.90,-61.22"/>
    </edge>
    <edge id="-E10" from="J11" to="J10" priority="-1">
        <lane id="-E10_0" index="0" speed="13.89" length="78.75" shape="-96.74,70.63 -98.63,-8.09"/>
        <lane id="-E10_1" index="1" speed="13.89" length="78.75" shape="-93.55,70.56 -95.43,-8.17"/>
    </edge>
    <edge id="-E11" from="J12" to="J9" priority="-1">
        <lane id="-E11_0" index="0" speed="13.89" length="73.09" shape="-98.39,121.55 -171.47,122.17"/>
        <lane id="-E11_1" index="1" speed="13.89" length="73.09" shape="-98.42,118.35 -171.52,118.97"/>
    </edge>
    <edge id="-E12" from="J13" to="J12" priority="-1">
        <lane id="-E12_0" index="0" speed="13.89" length="113.47" shape="21.33,125.05 -91.95,118.59"/>
    </edge>
    <edge id="-E14" from="J14" to="J11" priority="-1">
        <lane id="-E14_0" index="0" speed="13.89" length="71.43" shape="-93.76,149.61 -93.48,78.18"/>
    </edge>
    <edge id="-E15" from="J15" to="J14" priority="-1">
        <lane id="-E15_0" index="0" speed="13.89" length="37.03" shape="-96.12,196.30 -96.87,159.28"/>
        <lane id="-E15_1" index="1" speed="13.89" length="37.03" shape="-92.92,196.24 -93.67,159.22"/>
    </edge>
    <edge id="-E20" from="J10" to="J17" priority="-1">
        <lane id="-E20_0" index="0" speed="13.89" length="184.13" shape="-82.41,-22.43 92.02,-81.41"/>
    </edge>
    <edge id="-E21" from="J18" to="J13" priority="-1">
        <lane id="-E21_0" index="0" speed="13.89" length="64.57" shape="95.21,134.94 30.96,128.59"/>
        <lane id="-E21_1" index="1" speed="13.89" length="64.57" shape="95.53,131.75 31.27,125.41"/>
    </edge>
    <edge id="-E22" from="J19" to="J8" priority="-1">
        <lane id="-E22_0" index="0" speed="13.89" length="74.59" shape="-329.89,171.25 -272.61,123.47"/>
    </edge>
    <edge id="-E23" from="J20" to="J15" priority="-1">
        <lane id="-E23_0" index="0" speed="13.89" length="161.76" shape="-139.27,360.79 -97.13,204.61"/>
    </edge>
    <edge id="-E26" from="J23" to="J20" priority="-1">
        <lane id="-E26_0" index="0" speed="13.89" length="110.14" shape="-242.99,401.51 -140.24,361.86"/>
    </edge>
    <edge id="-E27" from="J24" to="J23" priority="-1">
        <lane id="-E27_0" index="0" speed="13.89" length="111.32" shape="-323.69,322.71 -244.70,401.16"/>
    </edge>
    <edge id="-E3" from="J2" to="J1" priority="-1">
        <lane id="-E3_0" index="0" speed="13.89" length="118.34" shape="432.63,122.25 450.38,5.24"/>
    </edge>
    <edge id="-E30" from="J26" to="J18" priority="-1">
        <lane id="-E30_0" index="0" speed="13.89" length="270.36" shape="360.87,208.73 101.37,132.89"/>
    </edge>
    <edge id="-E32" from="J27" to="J24" priority="-1">
        <lane id="-E32_0" index="0" speed="13.89" length="90.85" shape="-360.01,238.79 -324.03,322.21"/>
    </edge>
    <edge id="-E33" from="J19" to="J27" priority="-1">
        <lane id="-E33_0" index="0" speed="13.89" length="70.73" shape="-328.25,174.22 -359.98,237.44"/>
    </edge>
    <edge id="-E4" from="J26" to="J2" priority="-1">
        <lane id="-E4_0" index="0" speed="13.89" length="107.15" shape="363.45,205.15 432.28,123.04"/>
    </edge>
    <edge id="-E9" from="J9" to="J8" priority="-1" shape="-192.68,117.55 -156.09,116.32 -265.61,119.71">
        <lane id="-E9_0" index="0" speed="13.89" length="77.89" shape="-189.08,122.25 -266.94,124.55"/>
        <lane id="-E9_1" index="1" speed="13.89" length="77.89" shape="-189.18,119.05 -267.03,121.35"/>
    </edge>
    <edge id="E0" from="J17" to="J0" priority="-1">
        <lane id="E0_0" index="0" speed="13.89" length="221.31" shape="102.69,-79.63 323.49,-64.59"/>
    </edge>
    <edge id="E1" from="J0" to="J1" priority="-1">
        <lane id="E1_0" index="0" speed="13.89" length="141.36" shape="325.36,-64.06 451.00,0.74"/>
    </edge>
    <edge id="E10" from="J10" to="J11" priority="-1">
        <lane id="E10_0" index="0" speed="13.89" length="78.75" shape="-89.04,-8.32 -87.15,70.40"/>
        <lane id="E10_1" index="1" speed="13.89" length="78.75" shape="-92.23,-8.25 -90.35,70.48"/>
    </edge>
    <edge id="E11" from="J9" to="J12" priority="-1" shape="-192.68,117.55 -113.68,116.26 -96.56,116.73">
        <lane id="E11_0" index="0" speed="13.89" length="73.15" shape="-171.58,115.61 -113.67,114.66 -98.44,115.08"/>
    </edge>
    <edge id="E12" from="J12" to="J13" priority="-1">
        <lane id="E12_0" index="0" speed="13.89" length="113.47" shape="-91.77,115.40 21.51,121.85"/>
    </edge>
    <edge id="E14" from="J11" to="J14" priority="-1">
        <lane id="E14_0" index="0" speed="13.89" length="71.43" shape="-90.28,78.19 -90.56,149.62"/>
    </edge>
    <edge id="E15" from="J14" to="J15" priority="-1">
        <lane id="E15_0" index="0" speed="13.89" length="37.03" shape="-87.28,159.09 -86.52,196.11"/>
        <lane id="E15_1" index="1" speed="13.89" length="37.03" shape="-90.47,159.15 -89.72,196.17"/>
    </edge>
    <edge id="E16" from="J14" to="J9" priority="-1">
        <lane id="E16_0" index="0" speed="13.89" length="75.70" shape="-101.07,152.49 -172.23,126.67"/>
    </edge>
    <edge id="E18" from="J9" to="J11" priority="-1">
        <lane id="E18_0" index="0" speed="13.89" length="88.18" shape="-181.10,110.82 -100.13,75.91"/>
    </edge>
    <edge id="E20" from="J17" to="J10" priority="-1">
        <lane id="E20_0" index="0" speed="13.89" length="184.13" shape="94.07,-75.35 -80.36,-16.37"/>
        <lane id="E20_1" index="1" speed="13.89" length="184.13" shape="93.05,-78.38 -81.38,-19.40"/>
    </edge>
    <edge id="E21" from="J13" to="J18" priority="-1">
        <lane id="E21_0" index="0" speed="13.89" length="64.57" shape="31.90,119.04 96.16,125.38"/>
        <lane id="E21_1" index="1" speed="13.89" length="64.57" shape="31.59,122.22 95.84,128.57"/>
    </edge>
    <edge id="E22" from="J8" to="J19" priority="-1">
        <lane id="E22_0" index="0" speed="13.89" length="74.59" shape="-270.57,125.93 -327.84,173.71"/>
    </edge>
    <edge id="E23" from="J15" to="J20" priority="-1">
        <lane id="E23_0" index="0" speed="13.89" length="161.76" shape="-94.04,205.45 -136.18,361.62"/>
    </edge>
    <edge id="E25" from="J10" to="J22" priority="-1">
        <lane id="E25_0" index="0" speed="13.89" length="48.97" shape="-81.23,-9.99 -40.81,17.64"/>
    </edge>
    <edge id="E26" from="J20" to="J23" priority="-1">
        <lane id="E26_0" index="0" speed="13.89" length="110.14" shape="-139.09,364.85 -241.84,404.50"/>
    </edge>
    <edge id="E27" from="J23" to="J24" priority="-1">
        <lane id="E27_0" index="0" speed="13.89" length="111.32" shape="-246.95,403.43 -325.94,324.99"/>
    </edge>
    <edge id="E28" from="J25" to="J12" priority="-1">
        <lane id="E28_0" index="0" speed="13.89" length="36.43" shape="-71.58,153.05 -93.30,123.80"/>
    </edge>
    <edge id="E29" from="J13" to="J14" priority="-1">
        <lane id="E29_0" index="0" speed="13.89" length="107.39" shape="21.70,129.33 -82.94,153.52"/>
    </edge>
    <edge id="E3" from="J1" to="J2" priority="-1">
        <lane id="E3_0" index="0" speed="13.89" length="118.34" shape="453.54,5.72 435.80,122.73"/>
    </edge>
    <edge id="E30" from="J18" to="J26" priority="-1">
        <lane id="E30_0" index="0" speed="13.89" length="270.36" shape="102.27,129.81 361.77,205.66"/>
    </edge>
    <edge id="E31" from="J11" to="J13" priority="-1">
        <lane id="E31_0" index="0" speed="13.89" length="113.16" shape="-83.55,75.63 21.82,116.89"/>
    </edge>
    <edge id="E32" from="J24" to="J27" priority="-1">
        <lane id="E32_0" index="0" speed="13.89" length="90.85" shape="-326.97,323.48 -362.95,240.06"/>
    </edge>
    <edge id="E33" from="J27" to="J19" priority="-1">
        <lane id="E33_0" index="0" speed="13.89" length="70.73" shape="-362.84,236.00 -331.11,172.79"/>
    </edge>
    <edge id="E4" from="J2" to="J26" priority="-1">
        <lane id="E4_0" index="0" speed="13.89" length="107.15" shape="434.73,125.09 365.90,207.21"/>
    </edge>
    <edge id="E5" from="J22" to="J3" priority="-1">
        <lane id="E5_0" index="0" speed="13.89" length="116.57" shape="-40.88,17.59 58.67,78.23"/>
    </edge>
    <edge id="E6" from="J3" to="J4" priority="-1">
        <lane id="E6_0" index="0" speed="13.89" length="72.42" shape="59.44,79.58 60.06,152.00"/>
    </edge>
    <edge id="E7" from="J4" to="J5" priority="-1">
        <lane id="E7_0" index="0" speed="13.89" length="56.81" shape="59.16,153.45 8.23,178.61"/>
    </edge>
    <edge id="E8" from="J5" to="J25" priority="-1">
        <lane id="E8_0" index="0" speed="13.89" length="81.76" shape="7.03,178.70 -70.79,153.62"/>
    </edge>
    <edge id="E9" from="J8" to="J9" priority="-1">
        <lane id="E9_0" index="0" speed="13.89" length="77.89" shape="-267.22,114.96 -189.37,112.65"/>
        <lane id="E9_1" index="1" speed="13.89" length="77.89" shape="-267.13,118.15 -189.27,115.85"/>
    </edge>

    <junction id="J0" type="priority" x="324.04" y="-62.95" incLanes="-E1_0 E0_0" intLanes=":J0_0_0 :J0_1_0" shape="323.16,-59.80 326.10,-65.49 325.22,-65.91 324.90,-66.03 324.56,-66.10 324.15,-66.14 323.60,-66.18">
        <request index="0" response="00" foes="00" cont="0"/>
        <request index="1" response="00" foes="00" cont="0"/>
    </junction>
    <junction id="J1" type="priority" x="452.31" y="3.21" incLanes="E1_0 -E3_0" intLanes=":J1_0_0 :J1_1_0" shape="451.73,-0.69 448.80,5.00 455.13,5.96 455.05,3.21 454.62,2.03 453.92,0.99 452.96,0.08">
        <request index="0" response="00" foes="00" cont="0"/>
        <request index="1" response="00" foes="00" cont="0"/>
    </junction>
    <junction id="J10" type="priority" x="-94.04" y="-16.81" incLanes="-E10_0 -E10_1 E20_0 E20_1" intLanes=":J10_0_0 :J10_1_0 :J10_2_0" shape="-100.23,-8.06 -87.44,-8.36 -86.89,-10.17 -86.16,-10.44 -85.12,-10.28 -83.78,-9.69 -82.14,-8.67 -80.33,-11.32 -81.74,-12.71 -81.86,-13.33 -81.58,-13.89 -80.91,-14.40 -79.84,-14.85 -82.92,-23.95 -88.28,-21.86 -92.64,-19.54 -96.02,-17.01 -98.41,-14.25 -99.82,-11.26">
        <request index="0" response="000" foes="000" cont="0"/>
        <request index="1" response="000" foes="000" cont="0"/>
        <request index="2" response="000" foes="000" cont="0"/>
    </junction>
    <junction id="J11" type="priority" x="-91.86" y="74.09" incLanes="E10_0 E10_1 E18_0 -E14_0" intLanes=":J11_0_0 :J11_1_0 :J11_2_0 :J11_3_0" shape="-84.13,77.12 -82.97,74.14 -84.37,73.28 -84.87,72.70 -85.23,72.02 -85.46,71.24 -85.55,70.37 -98.34,70.67 -98.58,72.29 -98.92,72.96 -99.39,73.55 -100.00,74.04 -100.76,74.44 -99.49,77.38 -97.03,76.62 -96.18,76.62 -95.56,76.88 -95.20,77.40 -95.08,78.17 -88.68,78.20 -88.17,76.81 -87.53,76.50 -86.65,76.45 -85.52,76.65">
        <request index="0" response="0000" foes="0000" cont="0"/>
        <request index="1" response="0000" foes="0000" cont="0"/>
        <request index="2" response="0000" foes="0000" cont="0"/>
        <request index="3" response="0000" foes="0000" cont="0"/>
    </junction>
    <junction id="J12" type="priority" x="-96.56" y="116.73" incLanes="E28_0 -E12_0 E11_0" intLanes=":J12_0_0 :J12_1_0 :J12_2_0" shape="-94.59,124.76 -92.02,122.85 -92.93,121.32 -93.05,120.80 -92.94,120.44 -92.61,120.23 -92.04,120.19 -91.68,113.80 -98.46,113.48 -98.38,123.15 -96.81,123.31 -96.14,123.54 -95.55,123.85 -95.03,124.26">
        <request index="0" response="000" foes="000" cont="0"/>
        <request index="1" response="000" foes="000" cont="0"/>
        <request index="2" response="000" foes="000" cont="0"/>
    </junction>
    <junction id="J13" type="priority" x="36.36" y="124.30" incLanes="-E21_0 -E21_1 E31_0 E12_0" intLanes=":J13_0_0 :J13_1_0 :J13_2_0 :J13_3_0" shape="30.80,130.18 32.06,117.44 29.96,117.25 28.40,117.10 27.12,116.91 25.86,116.62 24.38,116.14 22.41,115.40 21.24,118.38 21.60,120.25 21.24,126.64 21.34,127.77 22.06,130.89 25.25,130.17 26.40,130.00 27.55,129.95 28.94,130.02">
        <request index="0" response="0000" foes="0000" cont="0"/>
        <request index="1" response="0000" foes="0000" cont="0"/>
        <request index="2" response="0000" foes="0000" cont="0"/>
        <request index="3" response="0000" foes="0000" cont="0"/>
    </junction>
    <junction id="J14" type="priority" x="-92.18" y="154.01" incLanes="-E15_0 -E15_1 E29_0 E14_0" intLanes=":J14_0_0 :J14_1_0 :J14_2_0 :J14_3_0" shape="-98.47,159.32 -85.68,159.05 -85.36,157.17 -84.93,156.44 -84.33,155.84 -83.54,155.39 -82.58,155.07 -83.30,151.96 -86.45,152.28 -87.55,152.03 -88.34,151.51 -88.81,150.70 -88.96,149.63 -95.36,149.60 -95.94,151.20 -96.66,151.57 -97.66,151.66 -98.95,151.46 -100.52,150.98 -101.61,153.99 -99.91,155.08 -99.30,155.88 -98.86,156.85 -98.58,158.00">
        <request index="0" response="0000" foes="0000" cont="0"/>
        <request index="1" response="0000" foes="0000" cont="0"/>
        <request index="2" response="0000" foes="0000" cont="0"/>
        <request index="3" response="0000" foes="0000" cont="0"/>
    </junction>
    <junction id="J15" type="priority" x="-91.45" y="189.70" incLanes="E15_0 E15_1 -E23_0" intLanes=":J15_0_0 :J15_1_0 :J15_1_1" shape="-84.92,196.07 -97.72,196.33 -97.70,199.28 -97.78,200.32 -97.95,201.34 -98.24,202.56 -98.68,204.20 -92.50,205.86 -91.37,203.49 -89.79,202.04 -88.06,201.05 -86.47,200.03 -85.32,198.53">
        <request index="0" response="000" foes="000" cont="0"/>
        <request index="1" response="000" foes="000" cont="0"/>
        <request index="2" response="000" foes="000" cont="0"/>
    </junction>
    <junction id="J17" type="priority" x="89.64" y="-78.92" incLanes="-E0_0 -E20_0" intLanes=":J17_0_0 :J17_0_1 :J17_2_0" shape="102.36,-74.85 102.80,-81.23 100.36,-81.62 98.54,-82.25 97.05,-82.91 95.57,-83.39 93.83,-83.47 91.51,-82.93 94.58,-73.84 97.38,-74.72 98.40,-74.91 99.43,-74.98 100.69,-74.95">
        <request index="0" response="000" foes="000" cont="0"/>
        <request index="1" response="000" foes="000" cont="0"/>
        <request index="2" response="000" foes="000" cont="0"/>
    </junction>
    <junction id="J18" type="priority" x="98.81" y="130.47" incLanes="-E30_0 E21_0 E21_1" intLanes=":J18_0_0 :J18_0_1 :J18_2_0 :J18_2_1" shape="100.93,134.42 102.72,128.28 100.26,126.71 99.57,125.77 98.87,124.88 97.88,124.18 96.32,123.79 95.06,136.53 97.29,135.93 98.03,135.26 98.76,134.65 99.67,134.30">
        <request index="0" response="0000" foes="0000" cont="0"/>
        <request index="1" response="0000" foes="0000" cont="0"/>
        <request index="2" response="1000" foes="1000" cont="0"/>
        <request index="3" response="0000" foes="0100" cont="0"/>
    </junction>
    <junction id="J19" type="priority" x="-329.38" y="172.91" incLanes="E22_0 E33_0" intLanes=":J19_0_0 :J19_1_0" shape="-326.82,174.94 -330.92,170.03 -331.65,170.67 -331.88,170.92 -332.08,171.21 -332.29,171.57 -332.54,172.07">
        <request index="0" response="00" foes="00" cont="0"/>
        <request index="1" response="00" foes="00" cont="0"/>
    </junction>
    <junction id="J2" type="priority" x="434.08" y="123.38" incLanes="E3_0 -E4_0" intLanes=":J2_0_0 :J2_1_0" shape="437.38,122.97 431.05,122.01 435.95,126.12 436.76,125.09 436.99,124.69 437.14,124.25 437.26,123.70">
        <request index="0" response="00" foes="00" cont="0"/>
        <request index="1" response="00" foes="00" cont="0"/>
    </junction>
    <junction id="J20" type="priority" x="-138.15" y="362.77" incLanes="E23_0 -E26_0" intLanes=":J20_0_0 :J20_1_0" shape="-134.64,362.04 -140.82,360.37 -138.51,366.34 -136.74,365.34 -136.03,364.68 -135.44,363.91 -134.98,363.03">
        <request index="0" response="00" foes="00" cont="0"/>
        <request index="1" response="00" foes="00" cont="0"/>
    </junction>
    <junction id="J22" type="priority" x="-41.71" y="18.96" incLanes="E25_0" intLanes=":J22_0_0" shape="-41.64,19.00 -39.97,16.27 -41.78,18.91">
        <request index="0" response="0" foes="0" cont="0"/>
    </junction>
    <junction id="J23" type="priority" x="-244.35" y="403.75" incLanes="E26_0 -E27_0" intLanes=":J23_0_0 :J23_1_0" shape="-241.27,405.99 -243.57,400.02 -248.08,404.56 -246.02,406.02 -244.91,406.38 -243.74,406.50 -242.53,406.37">
        <request index="0" response="00" foes="00" cont="0"/>
        <request index="1" response="00" foes="00" cont="0"/>
    </junction>
    <junction id="J24" type="priority" x="-325.25" y="323.41" incLanes="E27_0 -E32_0" intLanes=":J24_0_0 :J24_1_0" shape="-327.07,326.12 -322.56,321.58 -328.43,324.11 -328.06,324.94 -327.89,325.21 -327.70,325.47 -327.44,325.75">
        <request index="0" response="00" foes="00" cont="0"/>
        <request index="1" response="00" foes="00" cont="0"/>
    </junction>
    <junction id="J25" type="priority" x="-70.30" y="152.10" incLanes="E8_0" intLanes=":J25_0_0" shape="-71.28,155.15 -70.30,152.10 -72.87,154.01 -72.41,154.58 -72.21,154.76 -71.98,154.89 -71.68,155.01">
        <request index="0" response="0" foes="0" cont="0"/>
    </junction>
    <junction id="J26" type="priority" x="363.33" y="207.78" incLanes="E4_0 E30_0" intLanes=":J26_0_0 :J26_1_0" shape="367.13,208.23 362.22,204.12 360.43,210.26 362.95,210.56 364.11,210.34 365.19,209.88 366.19,209.18">
        <request index="0" response="00" foes="00" cont="0"/>
        <request index="1" response="00" foes="00" cont="0"/>
    </junction>