<configuration>
    <input>
        <net-file value="demoAAA.net.xml"/>
        <route-files value="trips.trips.xml"/>
        <additional-files value="demoAAA.add.xml"/>
    </input>
</configuration>
