<?xml version="1.0" encoding="UTF-8"?>

<!-- generated on 2022-09-13 12:27:12 by Eclipse SUMO duarouter Version 1.13.0
<configuration xmlns:xsi="http://www.w3.org/2001/XMLSchema-instance" xsi:noNamespaceSchemaLocation="http://sumo.dlr.de/xsd/duarouterConfiguration.xsd">

    <input>
        <net-file value="demoAAA.net.xml"/>
        <route-files value="trips.trips.xml"/>
    </input>

    <output>
        <output-file value="routes.rou.xml"/>
        <alternatives-output value="routes.rou.alt.xml"/>
    </output>

    <time>
        <begin value="0"/>
        <end value="3600"/>
    </time>

    <report>
        <no-warnings value="true"/>
        <ignore-errors value="true"/>
        <no-step-log value="true"/>
    </report>

</configuration>
-->

<routes xmlns:xsi="http://www.w3.org/2001/XMLSchema-instance" xsi:noNamespaceSchemaLocation="http://sumo.dlr.de/xsd/routes_file.xsd">
    <vehicle id="0" depart="0.00">
        <route edges="E20 E10 E14 E15 E23 E2 -E22 E9 E18 -E10"/>
    </vehicle>
    <vehicle id="1" depart="2.11">
        <route edges="-E23 -E15 -E14 -E10 -E20 E3 -E30 -E21"/>
    </vehicle>
    <vehicle id="2" depart="4.22">
        <route edges="E23 E2 -E22 E9 E11 E12 E21"/>
    </vehicle>
    <vehicle id="3" depart="6.32">
        <route edges="E3 -E30 -E21 -E12"/>
    </vehicle>
    <vehicle id="4" depart="8.43">
        <route edges="E10 E14 E15 E23 E2 -E22 E9 E18 -E10"/>
    </vehicle>
    <vehicle id="5" depart="10.54">
        <route edges="-E21 E29 E15 E23 E2 -E22 E9 E11 E12 E21 E30 -E3 E20 E10 E14"/>
    </vehicle>
    <vehicle id="6" depart="12.65">
        <route edges="-E10 -E20"/>
    </vehicle>
    <vehicle id="7" depart="14.76">
        <route edges="E20 E10 E14 E15"/>
    </vehicle>
    <vehicle id="8" depart="16.86">
        <route edges="-E21 E29 E15 E23 E2 -E22 E9 E18"/>
    </vehicle>
    <vehicle id="9" depart="18.97">
        <route edges="E27 E28 -E11 -E9 E22 -E2 -E23 -E15 -E14 -E10"/>
    </vehicle>
    <vehicle id="10" depart="21.08">
        <route edges="E27 E28 -E11 -E9 E22"/>
    </vehicle>
    <vehicle id="11" depart="23.19">
        <route edges="-E30 -E21 -E12 -E11 -E9 E22 -E2"/>
    </vehicle>
    <vehicle id="12" depart="25.30">
        <route edges="E31 E21 E30 -E3 E20 E10 E14 E15 E23 E2 -E22 E9 E18 -E10 -E20 E3 -E30"/>
    </vehicle>
    <vehicle id="13" depart="27.40">
        <route edges="-E14"/>
    </vehicle>
    <vehicle id="14" depart="29.51">
        <route edges="E28 -E11 -E9 E22 -E2 -E23 -E15 -E14 -E10 -E20 E3 -E30 -E21 E29 E15 E23 E2 -E22 E9 E18"/>
    </vehicle>
    <vehicle id="15" depart="31.62">
        <route edges="E27 E28 -E11 -E9 E22 -E2 -E23 -E15 -E14 -E10 -E20 E3 -E30 -E21 E29 E15 E23"/>
    </vehicle>
    <vehicle id="16" depart="33.73">
        <route edges="E15 E23 E2 -E22 E9"/>
    </vehicle>
    <vehicle id="17" depart="35.84">
        <route edges="-E9 E22 -E2 -E23 -E15 E16"/>
    </vehicle>
    <vehicle id="18" depart="37.94">
        <route edges="E28 -E11 -E9 E22 -E2 -E23 -E15 -E14 -E10 -E20 E3 -E30 -E21 E29 E15 E23 E2"/>
    </vehicle>
    <vehicle id="19" depart="40.05">
        <route edges="E29 E15 E23 E2 -E22 E9 E18"/>
    </vehicle>
    <vehicle id="20" depart="42.16">
        <route edges="E22 -E2 -E23 -E15 -E14 -E10 -E20 E3 -E30 -E21 -E12 -E11"/>
    </vehicle>
    <vehicle id="21" depart="44.27">
        <route edges="-E21 -E12 -E11 -E9 E22 -E2 -E23"/>
    </vehicle>
    <vehicle id="22" depart="46.38">
        <route edges="-E12 -E11 -E9 E22 -E2 -E23 -E15 -E14 -E10 -E20 E3 -E30 -E21"/>
    </vehicle>
    <vehicle id="23" depart="48.48">
        <route edges="-E14 -E10 -E20 E3 -E30 -E21 -E12 -E11 -E9 E22 -E2 -E23"/>
    </vehicle>
    <vehicle id="24" depart="50.59">
        <route edges="E2 -E22 E9 E18 -E10 -E20 E3 -E30 -E21 -E12 -E11 -E9"/>
    </vehicle>
    <vehicle id="25" depart="52.70">
        <route edges="-E9 E22 -E2 -E23 -E15 -E14 -E10 -E20"/>
    </vehicle>
    <vehicle id="26" depart="54.81">
        <route edges="-E22 E9 E11 E12 E21 E30"/>
    </vehicle>
    <vehicle id="27" depart="56.92">
        <route edges="E20 E10 E14 E15 E23 E2"/>
    </vehicle>
    <vehicle id="28" depart="59.02">
        <route edges="-E2 -E23 -E15 -E14 -E10 -E20 E3 -E30 -E21 E29 E15 E23"/>
    </vehicle>
    <vehicle id="29" depart="61.13">
        <route edges="-E2 -E23 -E15 E16 -E9"/>
    </vehicle>
    <vehicle id="30" depart="63.24">
        <route edges="E9 E11 E12 E21 E30 -E3 E20"/>
    </vehicle>
    <vehicle id="31" depart="65.35">
        <route edges="E16 -E9 E22 -E2 -E23 -E15 -E14 -E10 -E20 E3 -E30 -E21 E29 E15 E23 E2 -E22 E9 E11 E12 E21"/>
    </vehicle>
    <vehicle id="32" depart="67.46">
        <route edges="E28 -E11 -E9 E22 -E2 -E23 -E15 -E14 -E10 -E20 E3 -E30 -E21 E29 E15 E23 E2 -E22 E9 E11 E12 E21 E30 -E3 E20 E25"/>
    </vehicle>
    <vehicle id="33" depart="69.57">
        <route edges="-E21 -E12 -E11"/>
    </vehicle>
    <vehicle id="34" depart="71.67">
        <route edges="-E3 E20 E10 E14 E15 E23 E2 -E22"/>
    </vehicle>
    <vehicle id="35" depart="73.78">
        <route edges="-E20 E3 -E30 -E21 E29 E15 E23 E2 -E22 E9 E11 E12 E21 E30 -E3 E20 E10 E31"/>
    </vehicle>
    <vehicle id="36" depart="75.89">
        <route edges="E29 E15 E23 E2 -E22 E9 E11 E12 E21 E30 -E3"/>
    </vehicle>
    <vehicle id="37" depart="78.00">
        <route edges="E20 E10"/>
    </vehicle>
    <vehicle id="38" depart="80.11">
        <route edges="E30 -E3 E20 E10 E14 E15 E23 E2 -E22 E9 E11 E12"/>
    </vehicle>
    <vehicle id="39" depart="82.21">
        <route edges="-E22"/>
    </vehicle>
    <vehicle id="40" depart="84.32">
        <route edges="E16 -E9 E22 -E2 -E23 -E15 -E14 -E10 -E20 E3 -E30 -E21 E29 E15 E23 E2 -E22"/>
    </vehicle>
    <vehicle id="41" depart="86.43">
        <route edges="E18 -E10 -E20 E3"/>
    </vehicle>
    <vehicle id="42" depart="88.54">
        <route edges="E10 E14 E15 E23 E2 -E22 E9 E18 -E10 -E20 E3 -E30 -E21"/>
    </vehicle>
    <vehicle id="43" depart="90.65">
        <route edges="E9 E11 E12 E21 E30 -E3 E20 E10 E14"/>
    </vehicle>
    <vehicle id="44" depart="92.75">
        <route edges="-E14 -E10 -E20 E3 -E30 -E21 -E12 -E11"/>
    </vehicle>
    <vehicle id="45" depart="94.86">
        <route edges="-E14 -E10 -E20 E3 -E30 -E21 E29 E15 E23 E2"/>
    </vehicle>
    <vehicle id="46" depart="96.97">
        <route edges="E27 E28 -E11 -E9 E22 -E2 -E23 -E15 -E14 -E10 -E20 E3 -E30 -E21 E29 E15 E23 E2 -E22 E9 E11 E12 E21 E30 -E3 E20 E10"/>
    </vehicle>
    <vehicle id="47" depart="99.08">
        <route edges="-E12 -E11 -E9"/>
    </vehicle>
    <vehicle id="48" depart="101.19">
        <route edges="E9 E18 -E10 -E20 E3 -E30 -E21 E29 E15"/>
    </vehicle>
    <vehicle id="49" depart="103.29">
        <route edges="E9 E18 -E10 -E20 E3 -E30 -E21 E29"/>
    </vehicle>
    <vehicle id="50" depart="105.40">
        <route edges="-E10 -E20 E3 -E30 -E21 -E12 -E11 -E9 E22"/>
    </vehicle>
    <vehicle id="51" depart="107.51">
        <route edges="E21 E30 -E3 E20 E10 E14 E15"/>
    </vehicle>
    <vehicle id="52" depart="109.62">
        <route edges="-E22 E9 E11 E12 E21 E30 -E3 E20"/>
    </vehicle>
    <vehicle id="53" depart="111.73">
        <route edges="-E14 -E10 -E20 E3 -E30 -E21 E29 E15 E23 E2 -E22 E9 E11"/>
    </vehicle>
    <vehicle id="54" depart="113.83">
        <route edges="E11 E12 E21 E30 -E3 E20 E10 E31"/>
    </vehicle>
    <vehicle id="55" depart="115.94">
        <route edges="E29 E15 E23 E2 -E22"/>
    </vehicle>
    <vehicle id="56" depart="118.05">
        <route edges="E14 E15 E23 E2 -E22 E9 E18 -E10 -E20 E3 -E30 -E21 -E12 -E11 -E9 E22 -E2"/>
    </vehicle>
    <vehicle id="57" depart="120.16">
        <route edges="E30 -E3 E20 E10 E14 E15 E23 E2 -E22 E9 E18 -E10 -E20 E3 -E30 -E21 E29"/>
    </vehicle>
    <vehicle id="58" depart="122.27">
        <route edges="-E23 -E15 -E14 -E10 -E20 E3 -E30 -E21 E29 E15 E23 E2 -E22 E9 E11 E12 E21 E30 -E3 E20"/>
    </vehicle>
    <vehicle id="59" depart="124.37">
        <route edges="E2 -E22 E9 E18 -E10 -E20 E3 -E30 -E21 -E12 -E11 -E9 E22 -E2"/>
    </vehicle>
    <vehicle id="60" depart="126.48">
        <route edges="E25 E27 E28 -E11 -E9 E22 -E2 -E23 -E15 -E14 -E10 -E20 E3 -E30 -E21 E29 E15"/>
    </vehicle>
    <vehicle id="61" depart="128.59">
        <route edges="E25 E27 E28 -E11 -E9 E22 -E2 -E23 -E15 -E14 -E10 -E20 E3 -E30 -E21 E29 E15"/>
    </vehicle>
    <vehicle id="62" depart="130.70">
        <route edges="-E10 -E20 E3 -E30 -E21 E29 E15 E23 E2 -E22 E9 E11 E12 E21 E30 -E3"/>
    </vehicle>
    <vehicle id="63" depart="132.81">
        <route edges="-E10 -E20 E3 -E30 -E21 E29 E15 E23 E2 -E22 E9 E11 E12 E21 E30"/>
    </vehicle>
    <vehicle id="64" depart="134.91">
        <route edges="E29 E15 E23 E2 -E22 E9 E11 E12 E21 E30 -E3 E20 E25 E27 E28"/>
    </vehicle>
    <vehicle id="65" depart="137.02">
        <route edges="-E3 E20 E25 E27 E28 -E11"/>
    </vehicle>
    <vehicle id="66" depart="139.13">
        <route edges="E29 E15 E23 E2 -E22 E9 E11 E12 E21 E30 -E3 E20 E10 E31"/>
    </vehicle>
    <vehicle id="67" depart="141.24">
        <route edges="-E12 -E11 -E9 E22 -E2 -E23 -E15 -E14 -E10 -E20 E3 -E30 -E21 E29 E15 E23 E2 -E22 E9 E11 E12 E21 E30 -E3 E20 E10 E14"/>
    </vehicle>
    <vehicle id="68" depart="143.35">
        <route edges="-E12 -E11 -E9 E22 -E2 -E23 -E15 -E14 -E10 -E20 E3 -E30 -E21 E29 E15 E23 E2 -E22 E9 E11 E12 E21 E30 -E3 E20 E25"/>
    </vehicle>
    <vehicle id="69" depart="145.45">
        <route edges="E25 E27 E28 -E11 -E9 E22 -E2 -E23 -E15"/>
    </vehicle>
    <vehicle id="70" depart="147.56">
        <route edges="E12 E21 E30 -E3 E20 E25 E27 E28 -E11 -E9 E22 -E2 -E23 -E15 E16"/>
    </vehicle>
    <vehicle id="71" depart="149.67">
        <route edges="-E22 E9 E18 -E10 -E20 E3 -E30 -E21 E29"/>
    </vehicle>
    <vehicle id="72" depart="151.78">
        <route edges="E10 E14 E15 E23 E2 -E22 E9 E18 -E10 -E20"/>
    </vehicle>
    <vehicle id="73" depart="153.89">
        <route edges="E15 E23"/>
    </vehicle>
    <vehicle id="74" depart="155.99">
        <route edges="-E20 E3 -E30 -E21 E29 E15 E23 E2 -E22 E9 E11 E12 E21 E30 -E3"/>
    </vehicle>
    <vehicle id="75" depart="158.10">
        <route edges="E9 E11 E12 E21 E30 -E3 E20"/>
    </vehicle>
    <vehicle id="76" depart="160.21">
        <route edges="E11 E12 E21 E30 -E3 E20 E10 E14 E15"/>
    </vehicle>
    <vehicle id="77" depart="162.32">
        <route edges="-E14 -E10 -E20 E3 -E30 -E21"/>
    </vehicle>
    <vehicle id="78" depart="164.43">
        <route edges="-E30 -E21 E29 E15 E23 E2 -E22 E9 E18"/>
    </vehicle>
    <vehicle id="79" depart="166.53">
        <route edges="-E21"/>
    </vehicle>
    <vehicle id="80" depart="168.64">
        <route edges="-E12 -E11 -E9 E22 -E2 -E23 -E15 -E14 -E10 -E20 E3 -E30 -E21 E29 E15 E23 E2"/>
    </vehicle>
    <vehicle id="81" depart="170.75">
        <route edges="-E21 E29 E15 E23 E2 -E22 E9 E18 -E10 -E20 E3"/>
    </vehicle>
    <vehicle id="82" depart="172.86">
        <route edges="E29 E15 E23 E2 -E22 E9 E18 -E10 -E20 E3 -E30 -E21 -E12"/>
    </vehicle>
    <vehicle id="83" depart="174.97">
        <route edges="-E21 E29 E15 E23 E2 -E22 E9 E11 E12 E21"/>
    </vehicle>
    <vehicle id="84" depart="177.07">
        <route edges="-E21 -E12 -E11 -E9 E22 -E2 -E23 -E15"/>
    </vehicle>
    <vehicle id="85" depart="179.18">
        <route edges="E30 -E3 E20 E25 E27 E28 -E11 -E9 E22 -E2 -E23 -E15 E16"/>
    </vehicle>
    <vehicle id="86" depart="181.29">
        <route edges="E12 E21 E30 -E3 E20 E25"/>
    </vehicle>
    <vehicle id="87" depart="183.40">
        <route edges="E27 E28 -E11 -E9 E22 -E2 -E23 -E15 -E14 -E10 -E20"/>
    </vehicle>
    <vehicle id="88" depart="185.51">
        <route edges="-E14 -E10 -E20 E3 -E30 -E21 E29 E15 E23 E2 -E22 E9 E11"/>
    </vehicle>
    <vehicle id="89" depart="187.61">
        <route edges="E10 E14 E15 E23 E2 -E22 E9 E11 E12"/>
    </vehicle>
    <vehicle id="90" depart="189.72">
        <route edges="E23 E2 -E22 E9 E11 E12 E21"/>
    </vehicle>
    <vehicle id="91" depart="191.83">
        <route edges="E9 E18 -E10 -E20 E3 -E30 -E21 -E12 -E11 -E9 E22 -E2 -E23 -E15 -E14"/>
    </vehicle>
    <vehicle id="92" depart="193.94">
        <route edges="E10 E14 E15 E23 E2 -E22 E9 E18 -E10 -E20 E3 -E30"/>
    </vehicle>
    <vehicle id="93" depart="196.05">
        <route edges="E29 E15 E23 E2 -E22"/>
    </vehicle>
    <vehicle id="94" depart="198.16">
        <route edges="-E20 E3 -E30 -E21 E29 E15 E23 E2 -E22 E9 E11"/>
    </vehicle>
    <vehicle id="95" depart="200.26">
        <route edges="E10 E31 E21 E30 -E3 E20 E25 E27 E28 -E11 -E9 E22 -E2 -E23"/>
    </vehicle>
    <vehicle id="96" depart="202.37">
        <route edges="-E22 E9 E11 E12 E21 E30"/>
    </vehicle>
    <vehicle id="97" depart="204.48">
        <route edges="E11 E12 E21 E30 -E3 E20 E10 E14 E15 E23 E2 -E22 E9 E18 -E10 -E20 E3 -E30 -E21 E29"/>
    </vehicle>
    <vehicle id="98" depart="206.59">
        <route edges="E16 -E9 E22 -E2 -E23 -E15 -E14 -E10 -E20 E3 -E30 -E21 -E12 -E11"/>
    </vehicle>
    <vehicle id="99" depart="208.70">
        <route edges="E9 E11 E12 E21 E30 -E3 E20 E25 E27 E28"/>
    </vehicle>
    <vehicle id="100" depart="210.80">
        <route edges="E31 E21 E30"/>
    </vehicle>
    <vehicle id="101" depart="212.91">
        <route edges="E29 E15 E23 E2 -E22 E9 E18 -E10 -E20 E3 -E30 -E21 -E12 -E11 -E9 E22 -E2"/>
    </vehicle>
    <vehicle id="102" depart="215.02">
        <route edges="E14 E15 E23 E2 -E22 E9 E18 -E10 -E20 E3 -E30 -E21"/>
    </vehicle>
    <vehicle id="103" depart="217.13">
        <route edges="E10 E31 E21 E30 -E3 E20 E25 E27 E28 -E11"/>
    </vehicle>
    <vehicle id="104" depart="219.24">
        <route edges="-E9 E22 -E2 -E23 -E15 -E14 -E10 -E20 E3 -E30 -E21 E29 E15 E23 E2 -E22 E9"/>
    </vehicle>
    <vehicle id="105" depart="221.34">
        <route edges="-E22 E9 E11 E12 E21 E30 -E3 E20 E25"/>
    </vehicle>
    <vehicle id="106" depart="223.45">
        <route edges="E12 E21 E30 -E3 E20 E10"/>
    </vehicle>
    <vehicle id="107" depart="225.56">
        <route edges="E31 E21 E30 -E3 E20 E10 E14 E15 E23 E2 -E22 E9"/>
    </vehicle>
    <vehicle id="108" depart="227.67">
        <route edges="E16 -E9 E22"/>
    </vehicle>
    <vehicle id="109" depart="229.78">
        <route edges="-E2 -E23"/>
    </vehicle>
    <vehicle id="110" depart="231.88">
        <route edges="E31 E21 E30 -E3 E20 E10 E14 E15 E23 E2 -E22 E9 E18"/>
    </vehicle>
    <vehicle id="111" depart="233.99">
        <route edges="E15 E23"/>
    </vehicle>
    <vehicle id="112" depart="236.10">
        <route edges="-E11 -E9 E22 -E2 -E23 -E15 -E14 -E10 -E20 E3 -E30 -E21 E29 E15 E23 E2 -E22 E9 E18"/>
    </vehicle>
    <vehicle id="113" depart="238.21">
        <route edges="E14 E15 E23 E2 -E22 E9 E18 -E10 -E20 E3 -E30 -E21 E29"/>
    </vehicle>
    <vehicle id="114" depart="240.32">
        <route edges="-E2 -E23 -E15 -E14 -E10 -E20 E3 -E30 -E21 E29 E15 E23 E2 -E22 E9 E11 E12 E21 E30 -E3 E20 E10 E31"/>
    </vehicle>
    <vehicle id="115" depart="242.42">
        <route edges="-E12 -E11 -E9 E22 -E2 -E23 -E15 -E14 -E10 -E20"/>
    </vehicle>
    <vehicle id="116" depart="244.53">
        <route edges="E18 -E10 -E20 E3 -E30 -E21 E29 E15 E23 E2 -E22 E9 E11 E12 E21"/>
    </vehicle>
    <vehicle id="117" depart="246.64">
        <route edges="-E21 -E12 -E11 -E9 E22 -E2 -E23 -E15 -E14"/>
    </vehicle>
    <vehicle id="118" depart="248.75">
        <route edges="E3 -E30 -E21 E29 E15 E23 E2 -E22"/>
    </vehicle>
    <vehicle id="119" depart="250.86">
        <route edges="E18 -E10 -E20 E3 -E30 -E21 E29 E15 E23 E2"/>
    </vehicle>
    <vehicle id="120" depart="252.96">
        <route edges="E10 E14 E15 E23 E2 -E22 E9 E18"/>
    </vehicle>
    <vehicle id="121" depart="255.07">
        <route edges="E15 E23 E2 -E22 E9 E11 E12 E21 E30"/>
    </vehicle>
    <vehicle id="122" depart="257.18">
        <route edges="-E20 E3 -E30 -E21 -E12 -E11 -E9 E22"/>
    </vehicle>
    <vehicle id="123" depart="259.29">
        <route edges="-E21 E29 E15 E23 E2 -E22 E9 E11 E12 E21 E30 -E3 E20 E10"/>
    </vehicle>
    <vehicle id="124" depart="261.40">
        <route edges="E21 E30 -E3 E20 E25 E27 E28 -E11 -E9 E22 -E2 -E23"/>
    </vehicle>
    <vehicle id="125" depart="263.50">
        <route edges="-E3 E20 E10 E14 E15 E23"/>
    </vehicle>
    <vehicle id="126" depart="265.61">
        <route edges="-E12 -E11 -E9 E22 -E2 -E23 -E15 -E14 -E10 -E20 E3 -E30 -E21 E29 E15 E23 E2 -E22 E9 E11 E12"/>
    </vehicle>
    <vehicle id="127" depart="267.72">
        <route edges="E9"/>
    </vehicle>
    <vehicle id="128" depart="269.83">
        <route edges="-E12 -E11 -E9 E22 -E2 -E23 -E15 -E14 -E10 -E20 E3 -E30 -E21"/>
    </vehicle>
    <vehicle id="129" depart="271.94">
        <route edges="-E22 E9 E11 E12 E21 E30"/>
    </vehicle>
    <vehicle id="130" depart="274.04">
        <route edges="E3"/>
    </vehicle>
    <vehicle id="131" depart="276.15">
        <route edges="-E9 E22 -E2"/>
    </vehicle>
    <vehicle id="132" depart="278.26">
        <route edges="E28 -E11 -E9 E22"/>
    </vehicle>
    <vehicle id="133" depart="280.37">
        <route edges="E2 -E22 E9"/>
    </vehicle>
    <vehicle id="134" depart="282.48">
        <route edges="E20 E10 E14 E15 E23 E2 -E22 E9 E18 -E10"/>
    </vehicle>
    <vehicle id="135" depart="284.58">
        <route edges="E27 E28 -E11 -E9 E22 -E2 -E23"/>
    </vehicle>
    <vehicle id="136" depart="286.69">
        <route edges="E20 E10 E31 E21 E30"/>
    </vehicle>
    <vehicle id="137" depart="288.80">
        <route edges="-E15 -E14"/>
    </vehicle>
    <vehicle id="138" depart="290.91">
        <route edges="-E14 -E10 -E20 E3 -E30 -E21 -E12 -E11 -E9 E22 -E2 -E23 -E15 E16"/>
    </vehicle>
    <vehicle id="139" depart="293.02">
        <route edges="-E22 E9 E18"/>
    </vehicle>
    <vehicle id="140" depart="295.12">
        <route edges="E22 -E2 -E23 -E15 -E14 -E10 -E20"/>
    </vehicle>
    <vehicle id="141" depart="297.23">
        <route edges="E2 -E22"/>
    </vehicle>
    <vehicle id="142" depart="299.34">
        <route edges="E14 E15 E23 E2 -E22 E9 E18 -E10 -E20 E3"/>
    </vehicle>
    <vehicle id="143" depart="301.45">
        <route edges="E28 -E11 -E9 E22 -E2 -E23 -E15 -E14"/>
    </vehicle>
    <vehicle id="144" depart="303.56">
        <route edges="E10 E31 E21 E30 -E3 E20 E25 E27 E28 -E11 -E9 E22 -E2 -E23"/>
    </vehicle>
    <vehicle id="145" depart="305.66">
        <route edges="-E10 -E20 E3 -E30 -E21 E29 E15 E23 E2 -E22 E9 E11 E12 E21 E30 -E3 E20 E25"/>
    </vehicle>
    <vehicle id="146" depart="307.77">
        <route edges="E20 E10 E14 E15 E23 E2 -E22"/>
    </vehicle>
    <vehicle id="147" depart="309.88">
        <route edges="E23 E2 -E22 E9 E18 -E10 -E20 E3 -E30 -E21 -E12 -E11 -E9 E22 -E2 -E23 -E15 E16"/>
    </vehicle>
    <vehicle id="148" depart="311.99">
        <route edges="E11 E12 E21 E30 -E3 E20 E10 E14 E15 E23 E2 -E22 E9 E18 -E10"/>
    </vehicle>
    <vehicle id="149" depart="314.10">
        <route edges="-E12 -E11 -E9 E22 -E2 -E23 -E15 -E14 -E10 -E20 E3"/>
    </vehicle>
    <vehicle id="150" depart="316.20">
        <route edges="E3 -E30 -E21 -E12 -E11 -E9 E22 -E2 -E23 -E15 E16"/>
    </vehicle>
    <vehicle id="151" depart="318.31">
        <route edges="E28 -E11 -E9 E22 -E2 -E23 -E15 -E14 -E10 -E20 E3 -E30 -E21 E29 E15 E23 E2 -E22 E9 E18"/>
    </vehicle>
    <vehicle id="152" depart="320.42">
        <route edges="-E15"/>
    </vehicle>
    <vehicle id="153" depart="322.53">
        <route edges="-E3 E20 E10 E14 E15 E23 E2 -E22 E9 E18 -E10 -E20 E3"/>
    </vehicle>
    <vehicle id="154" depart="324.64">
        <route edges="E27 E28 -E11 -E9 E22 -E2 -E23 -E15 -E14 -E10 -E20 E3 -E30 -E21 E29"/>
    </vehicle>
    <vehicle id="155" depart="326.75">
        <route edges="E3 -E30 -E21 E29 E15 E23 E2 -E22 E9 E18 -E10 -E20"/>
    </vehicle>
    <vehicle id="156" depart="328.85">
        <route edges="-E22 E9 E18 -E10 -E20 E3 -E30 -E21 -E12 -E11 -E9 E22 -E2 -E23 -E15 -E14"/>
    </vehicle>
    <vehicle id="157" depart="330.96">
        <route edges="E25 E27 E28 -E11 -E9 E22 -E2 -E23 -E15 -E14 -E10 -E20 E3"/>
    </vehicle>
    <vehicle id="158" depart="333.07">
        <route edges="E10 E14 E15 E23 E2"/>
    </vehicle>
    <vehicle id="159" depart="335.18">
        <route edges="-E2 -E23 -E15 -E14 -E10 -E20 E3 -E30 -E21 E29 E15 E23 E2 -E22 E9 E11 E12 E21 E30"/>
    </vehicle>
    <vehicle id="160" depart="337.29">
        <route edges="E29 E15 E23 E2 -E22 E9"/>
    </vehicle>
    <vehicle id="161" depart="339.39">
        <route edges="E27 E28 -E11 -E9 E22 -E2 -E23 -E15 -E14 -E10 -E20 E3"/>
    </vehicle>
    <vehicle id="162" depart="341.50">
        <route edges="-E10 -E20 E3 -E30 -E21 E29 E15 E23"/>
    </vehicle>
    <vehicle id="163" depart="343.61">
        <route edges="-E3 E20 E10 E31 E21 E30"/>
    </vehicle>
    <vehicle id="164" depart="345.72">
        <route edges="E27 E28 -E11 -E9 E22 -E2 -E23 -E15 -E14 -E10 -E20 E3 -E30 -E21 E29"/>
    </vehicle>
    <vehicle id="165" depart="347.83">
        <route edges="E27 E28 -E11 -E9 E22 -E2 -E23 -E15 -E14 -E10 -E20 E3 -E30 -E21 E29 E15 E23 E2 -E22"/>
    </vehicle>
    <vehicle id="166" depart="349.93">
        <route edges="E25 E27 E28 -E11 -E9 E22 -E2 -E23 -E15 -E14"/>
    </vehicle>
    <vehicle id="167" depart="352.04">
        <route edges="E29"/>
    </vehicle>
    <vehicle id="168" depart="354.15">
        <route edges="-E21 E29 E15 E23 E2 -E22 E9 E11 E12 E21 E30 -E3 E20 E25 E27"/>
    </vehicle>
    <vehicle id="169" depart="356.26">
        <route edges="E12 E21 E30 -E3"/>
    </vehicle>
    <vehicle id="170" depart="358.37">
        <route edges="E27 E28 -E11 -E9 E22 -E2 -E23 -E15 -E14 -E10 -E20 E3 -E30 -E21"/>
    </vehicle>
    <vehicle id="171" depart="360.47">
        <route edges="-E10 -E20"/>
    </vehicle>
    <vehicle id="172" depart="362.58">
        <route edges="-E3 E20 E10 E14 E15 E23 E2 -E22 E9 E18 -E10 -E20 E3 -E30 -E21 E29"/>
    </vehicle>
    <vehicle id="173" depart="364.69">
        <route edges="E31 E21 E30 -E3 E20 E25 E27 E28 -E11 -E9 E22 -E2 -E23"/>
    </vehicle>
    <vehicle id="174" depart="366.80">
        <route edges="E20 E10"/>
    </vehicle>
    <vehicle id="175" depart="368.91">
        <route edges="E9 E18 -E10 -E20 E3 -E30 -E21 E29 E15"/>
    </vehicle>
    <vehicle id="176" depart="371.01">
        <route edges="E30 -E3 E20 E25 E27 E28 -E11 -E9 E22 -E2 -E23 -E15 -E14"/>
    </vehicle>
    <vehicle id="177" depart="373.12">
        <route edges="E9 E18 -E10 -E20 E3 -E30 -E21 -E12 -E11 -E9 E22 -E2"/>
    </vehicle>
    <vehicle id="178" depart="375.23">
        <route edges="E31 E21 E30 -E3 E20 E10 E14 E15 E23 E2 -E22"/>
    </vehicle>
    <vehicle id="179" depart="377.34">
        <route edges="-E14 -E10 -E20 E3 -E30 -E21 E29 E15 E23 E2 -E22 E9 E11"/>
    </vehicle>
    <vehicle id="180" depart="379.45">
        <route edges="E23 E2 -E22 E9 E11 E12 E21 E30 -E3"/>
    </vehicle>
    <vehicle id="181" depart="381.55">
        <route edges="E2 -E22 E9 E11 E12 E21 E30 -E3 E20 E10 E14"/>
    </vehicle>
    <vehicle id="182" depart="383.66">
        <route edges="-E9 E22 -E2 -E23 -E15 -E14 -E10 -E20 E3 -E30 -E21 E29 E15 E23 E2 -E22 E9 E18"/>
    </vehicle>
    <vehicle id="183" depart="385.77">
        <route edges="-E22 E9 E18 -E10 -E20 E3 -E30 -E21 -E12 -E11 -E9 E22"/>
    </vehicle>
    <vehicle id="184" depart="387.88">
        <route edges="-E10 -E20 E3 -E30 -E21 E29 E15 E23 E2 -E22 E9 E11 E12 E21 E30"/>
    </vehicle>
    <vehicle id="185" depart="389.99">
        <route edges="E15 E23 E2 -E22 E9 E18 -E10 -E20 E3 -E30 -E21 -E12 -E11 -E9 E22"/>
    </vehicle>
    <vehicle id="186" depart="392.09">
        <route edges="E23 E2 -E22 E9 E11 E12 E21"/>
    </vehicle>
    <vehicle id="187" depart="394.20">
        <route edges="-E9 E22 -E2 -E23 -E15 -E14 -E10 -E20 E3 -E30 -E21 -E12"/>
    </vehicle>
    <vehicle id="188" depart="396.31">
        <route edges="E20 E10 E31 E21 E30 -E3"/>
    </vehicle>
    <vehicle id="189" depart="398.42">
        <route edges="-E3 E20 E25 E27 E28"/>
    </vehicle>
    <vehicle id="190" depart="400.53">
        <route edges="E22 -E2 -E23"/>
    </vehicle>
    <vehicle id="191" depart="402.63">
        <route edges="-E3 E20 E10"/>
    </vehicle>
    <vehicle id="192" depart="404.74">
        <route edges="E10 E31 E21 E30 -E3 E20 E25 E27 E28 -E11 -E9 E22 -E2 -E23"/>
    </vehicle>
    <vehicle id="193" depart="406.85">
        <route edges="-E15 -E14 -E10 -E20 E3 -E30 -E21 E29 E15 E23 E2 -E22 E9 E11 E12 E21 E30 -E3 E20 E10"/>
    </vehicle>
    <vehicle id="194" depart="408.96">
        <route edges="E31 E21"/>
    </vehicle>
    <vehicle id="195" depart="411.07">
        <route edges="E3 -E30 -E21 E29 E15 E23 E2"/>
    </vehicle>
    <vehicle id="196" depart="413.17">
        <route edges="-E23 -E15 E16"/>
    </vehicle>
    <vehicle id="197" depart="415.28">
        <route edges="-E10 -E20 E3 -E30 -E21 -E12 -E11 -E9 E22 -E2 -E23"/>
    </vehicle>
    <vehicle id="198" depart="417.39">
        <route edges="E11 E12 E21 E30 -E3 E20 E10 E14 E15 E23 E2 -E22 E9 E18"/>
    </vehicle>
    <vehicle id="199" depart="419.50">
        <route edges="E20 E10 E14 E15 E23 E2 -E22 E9 E11 E12"/>
    </vehicle>
    <vehicle id="200" depart="421.61">
        <route edges="E11 E12 E21 E30 -E3 E20 E10 E14 E15 E23 E2 -E22 E9 E18 -E10 -E20 E3 -E30 -E21"/>
    </vehicle>
    <vehicle id="201" depart="423.71">
        <route edges="E12 E21 E30 -E3 E20 E10 E14 E15 E23 E2 -E22 E9 E18 -E10 -E20 E3"/>
    </vehicle>
    <vehicle id="202" depart="425.82">
        <route edges="E27 E28 -E11 -E9 E22 -E2"/>
    </vehicle>
    <vehicle id="203" depart="427.93">
        <route edges="-E12 -E11 -E9 E22 -E2 -E23 -E15 -E14 -E10 -E20 E3 -E30 -E21 E29 E15"/>
    </vehicle>
    <vehicle id="204" depart="430.04">
        <route edges="E2 -E22 E9 E18 -E10 -E20 E3 -E30"/>
    </vehicle>
    <vehicle id="205" depart="432.15">
        <route edges="E28 -E11 -E9 E22 -E2 -E23 -E15 -E14 -E10 -E20 E3 -E30 -E21 E29 E15 E23"/>
    </vehicle>
    <vehicle id="206" depart="434.25">
        <route edges="E21 E30 -E3 E20 E10 E14 E15 E23 E2 -E22 E9 E18 -E10 -E20 E3 -E30 -E21"/>
    </vehicle>
    <vehicle id="207" depart="436.36">
        <route edges="-E20 E3 -E30 -E21 E29 E15 E23 E2 -E22 E9 E18 -E10"/>
    </vehicle>
    <vehicle id="208" depart="438.47">
        <route edges="-E22 E9 E11 E12"/>
    </vehicle>
    <vehicle id="209" depart="440.58">
        <route edges="E29 E15 E23 E2 -E22 E9 E18 -E10 -E20 E3 -E30 -E21 -E12"/>
    </vehicle>
    <vehicle id="210" depart="442.69">
        <route edges="E10 E14 E15 E23 E2"/>
    </vehicle>
    <vehicle id="211" depart="444.79">
        <route edges="-E20 E3 -E30 -E21 E29 E15 E23 E2 -E22 E9 E11 E12 E21"/>
    </vehicle>
    <vehicle id="212" depart="446.90">
        <route edges="E14 E15 E23 E2 -E22"/>
    </vehicle>
    <vehicle id="213" depart="449.01">
        <route edges="E20 E10 E14 E15 E23 E2 -E22 E9 E18 -E10"/>
    </vehicle>
    <vehicle id="214" depart="451.12">
        <route edges="E23 E2 -E22 E9 E11 E12 E21 E30 -E3 E20 E25"/>
    </vehicle>
    <vehicle id="215" depart="453.23">
        <route edges="-E14 -E10 -E20 E3 -E30 -E21 E29 E15 E23 E2 -E22 E9 E11"/>
    </vehicle>
    <vehicle id="216" depart="455.34">
        <route edges="-E2 -E23 -E15 -E14 -E10 -E20 E3 -E30 -E21 E29 E15 E23 E2 -E22 E9 E11 E12 E21 E30 -E3 E20 E10 E31"/>
    </vehicle>
    <vehicle id="217" depart="457.44">
        <route edges="E15 E23 E2 -E22 E9 E18 -E10 -E20 E3 -E30 -E21 -E12 -E11"/>
    </vehicle>
    <vehicle id="218" depart="459.55">
        <route edges="-E22 E9 E11 E12 E21 E30 -E3 E20 E25 E27 E28"/>
    </vehicle>
    <vehicle id="219" depart="461.66">
        <route edges="E12 E21 E30 -E3 E20 E25 E27"/>
    </vehicle>
    <vehicle id="220" depart="463.77">
        <route edges="E21 E30 -E3 E20 E10 E14 E15 E23 E2 -E22 E9"/>
    </vehicle>
    <vehicle id="221" depart="465.88">
        <route edges="E18 -E10 -E20 E3 -E30 -E21 E29 E15 E23 E2 -E22 E9 E11 E12 E21 E30 -E3 E20 E10 E31"/>
    </vehicle>
    <vehicle id="222" depart="467.98">
        <route edges="E3 -E30 -E21 E29 E15 E23 E2"/>
    </vehicle>
    <vehicle id="223" depart="470.09">
        <route edges="E22 -E2 -E23 -E15 -E14 -E10 -E20 E3 -E30 -E21 E29 E15 E23 E2 -E22 E9 E11 E12 E21 E30 -E3 E20 E10 E14"/>
    </vehicle>
    <vehicle id="224" depart="472.20">
        <route edges="E28 -E11 -E9 E22 -E2 -E23 -E15 E16"/>
    </vehicle>
    <vehicle id="225" depart="474.31">
        <route edges="E3 -E30 -E21 E29 E15 E23"/>
    </vehicle>
    <vehicle id="226" depart="476.42">
        <route edges="E12 E21 E30 -E3 E20 E10 E14 E15 E23 E2 -E22"/>
    </vehicle>
    <vehicle id="227" depart="478.52">
        <route edges="-E22 E9 E11 E12 E21 E30 -E3 E20"/>
    </vehicle>
    <vehicle id="228" depart="480.63">
        <route edges="E25 E27 E28 -E11 -E9 E22 -E2 -E23 -E15 -E14 -E10 -E20 E3 -E30 -E21 E29 E15"/>
    </vehicle>
    <vehicle id="229" depart="482.74">
        <route edges="E2 -E22 E9 E18 -E10 -E20 E3 -E30 -E21 -E12 -E11 -E9 E22 -E2 -E23"/>
    </vehicle>
    <vehicle id="230" depart="484.85">
        <route edges="-E12 -E11 -E9 E22 -E2 -E23"/>
    </vehicle>
    <vehicle id="231" depart="486.96">
        <route edges="-E22 E9 E11 E12 E21 E30 -E3"/>
    </vehicle>
    <vehicle id="232" depart="489.06">
        <route edges="E15 E23 E2 -E22 E9 E18 -E10 -E20 E3 -E30 -E21 -E12 -E11 -E9 E22 -E2 -E23 -E15"/>
    </vehicle>
    <vehicle id="233" depart="491.17">
        <route edges="-E21 E29 E15 E23 E2 -E22 E9 E11 E12 E21"/>
    </vehicle>
    <vehicle id="234" depart="493.28">
        <route edges="E22 -E2 -E23 -E15 -E14 -E10 -E20 E3 -E30 -E21 -E12"/>
    </vehicle>
    <vehicle id="235" depart="495.39">
        <route edges="E10 E14 E15"/>
    </vehicle>
    <vehicle id="236" depart="497.50">
        <route edges="E10 E14 E15 E23 E2 -E22 E9 E18 -E10 -E20"/>
    </vehicle>