<configuration>
    <input>
        <net-file value="demoAAA.net.xml"/>
        <route-files value="demoAAA.trips.xml"/>
        <additional-files value="demoAAA.add.xml"/>
    </input>

      <report>
        <verbose value="false"/>
        <duration-log.statistics value="true"/>
        <no-step-log value="true"/>
    </report>
</configuration>
