<?xml version="1.0" encoding="UTF-8"?>

<!-- generated on 2023-01-30 13:50:58 by Eclipse SUMO netedit Version 1.13.0
<configuration xmlns:xsi="http://www.w3.org/2001/XMLSchema-instance" xsi:noNamespaceSchemaLocation="http://sumo.dlr.de/xsd/netconvertConfiguration.xsd">

    <input>
        <sumo-net-file value="C:\Users\Lenovo%20T470\Documents\skola\Bakalarka\hrajkanie%20sa\sumo\demoAAA.net.xml"/>
    </input>

    <output>
        <output-file value="C:\Users\Lenovo%20T470\Documents\skola\Bakalarka\hrajkanie%20sa\sumo\demoAAA.net.xml"/>
    </output>

    <processing>
        <geometry.min-radius.fix.railways value="false"/>
        <geometry.max-grade.fix value="false"/>
        <offset.disable-normalization value="true"/>
        <lefthand value="false"/>
    </processing>

    <junctions>
        <no-turnarounds value="true"/>
        <junctions.corner-detail value="5"/>
        <junctions.limit-turn-speed value="5.5"/>
        <rectangular-lane-cut value="false"/>
    </junctions>

    <pedestrian>
        <walkingareas value="false"/>
    </pedestrian>

    <report>
        <aggregate-warnings value="5"/>
    </report>

</configuration>
-->

<net version="1.9" junctionCornerDetail="5" limitTurnSpeed="5.50" xmlns:xsi="http://www.w3.org/2001/XMLSchema-instance" xsi:noNamespaceSchemaLocation="http://sumo.dlr.de/xsd/net_file.xsd">

    <location netOffset="0.00,0.00" convBoundary="-341.41,-112.34,472.97,370.33" origBoundary="-10000000000.00,-10000000000.00,10000000000.00,10000000000.00" projParameter="!"/>

    <edge id=":J0_0" function="internal">
        <lane id=":J0_0_0" index="0" speed="13.89" length="0.66" shape="344.56,-94.64 344.38,-94.73 344.26,-94.78 344.12,-94.80 343.93,-94.82"/>
    </edge>
    <edge id=":J0_1" function="internal">
        <lane id=":J0_1_0" index="0" speed="8.86" length="1.97" shape="344.15,-98.01 344.73,-97.96 345.12,-97.89 345.50,-97.75 346.02,-97.49"/>
    </edge>
    <edge id=":J1_0" function="internal">
        <lane id=":J1_0_0" index="0" speed="6.17" length="6.02" shape="471.66,-32.68 472.97,-31.78 473.83,-30.65 474.24,-29.29 474.21,-27.70"/>
    </edge>
    <edge id=":J1_1" function="internal">
        <lane id=":J1_1_0" index="0" speed="3.95" length="2.01" shape="471.04,-28.18 471.06,-28.71 470.92,-29.16 470.63,-29.54 470.20,-29.84"/>
    </edge>
    <edge id=":J10_0" function="internal">
        <lane id=":J10_0_0" index="0" speed="11.41" length="23.02" shape="-77.97,-41.51 -77.04,-45.70 -74.02,-49.49 -68.92,-52.87 -61.75,-55.85"/>
    </edge>
    <edge id=":J10_1" function="internal">
        <lane id=":J10_1_0" index="0" speed="5.56" length="9.41" shape="-59.70,-49.79 -62.31,-48.53 -63.33,-47.04 -62.75,-45.34 -60.57,-43.41"/>
    </edge>
    <edge id=":J10_2" function="internal">
        <lane id=":J10_2_0" index="0" speed="9.77" length="16.68" shape="-60.72,-52.82 -65.54,-50.73 -68.95,-48.17 -70.96,-45.15 -71.57,-41.67"/>
    </edge>
    <edge id=":J11_0" function="internal">
        <lane id=":J11_0_0" index="0" speed="6.72" length="6.76" shape="-66.49,36.98 -66.23,38.75 -65.54,40.21 -64.43,41.36 -62.89,42.21"/>
    </edge>
    <edge id=":J11_1" function="internal">
        <lane id=":J11_1_0" index="0" speed="13.89" length="7.71" shape="-69.69,37.06 -69.62,44.77"/>
    </edge>
    <edge id=":J11_2" function="internal">
        <lane id=":J11_2_0" index="0" speed="6.64" length="6.69" shape="-79.47,42.49 -77.95,41.60 -76.88,40.42 -76.26,38.96 -76.08,37.21"/>
    </edge>
    <edge id=":J11_3" function="internal">
        <lane id=":J11_3_0" index="0" speed="13.89" length="7.62" shape="-72.82,44.76 -72.89,37.14"/>
    </edge>
    <edge id=":J12_0" function="internal">
        <lane id=":J12_0_0" index="0" speed="7.16" length="5.78" shape="-72.64,90.38 -73.60,89.38 -74.76,88.68 -76.14,88.26 -77.73,88.13"/>
    </edge>
    <edge id=":J12_1" function="internal">
        <lane id=":J12_1_0" index="0" speed="13.89" length="6.47" shape="-71.29,85.17 -77.76,84.93"/>
    </edge>
    <edge id=":J12_2" function="internal">
        <lane id=":J12_2_0" index="0" speed="13.89" length="6.68" shape="-77.78,81.66 -71.11,81.98"/>
    </edge>
    <edge id=":J13_0" function="internal">
        <lane id=":J13_0_0" index="0" speed="13.89" length="14.28" shape="56.55,95.66 52.04,95.24 48.63,95.10 45.64,95.30 42.36,95.91"/>
    </edge>
    <edge id=":J13_1" function="internal">
        <lane id=":J13_1_0" index="0" speed="13.89" length="14.90" shape="56.86,92.47 41.99,91.63"/>
    </edge>
    <edge id=":J13_2" function="internal">
        <lane id=":J13_2_0" index="0" speed="13.89" length="15.30" shape="42.48,83.47 45.73,84.54 48.89,85.19 52.60,85.63 57.49,86.10"/>
    </edge>
    <edge id=":J13_3" function="internal">
        <lane id=":J13_3_0" index="0" speed="13.89" length="15.03" shape="42.17,88.43 57.18,89.29"/>
    </edge>
    <edge id=":J14_0" function="internal">
        <lane id=":J14_0_0" index="0" speed="7.37" length="8.53" shape="-76.21,125.86 -76.52,123.45 -77.32,121.51 -78.61,120.05 -80.41,119.07"/>
    </edge>
    <edge id=":J14_1" function="internal">
        <lane id=":J14_1_0" index="0" speed="13.89" length="9.61" shape="-73.01,125.80 -73.10,116.19"/>
    </edge>
    <edge id=":J14_2" function="internal">
        <lane id=":J14_2_0" index="0" speed="6.56" length="7.74" shape="-62.28,120.10 -64.21,120.83 -65.58,122.00 -66.38,123.61 -66.62,125.67"/>
    </edge>
    <edge id=":J14_3" function="internal">
        <lane id=":J14_3_0" index="0" speed="13.89" length="9.53" shape="-69.90,116.20 -69.81,125.73"/>
    </edge>
    <edge id=":J15_0" function="internal">
        <lane id=":J15_0_0" index="0" speed="13.89" length="16.47" shape="-69.19,156.25 -69.59,161.48 -70.73,165.39 -72.15,168.67 -73.38,172.03"/>
    </edge>
    <edge id=":J15_1" function="internal">
        <lane id=":J15_1_0" index="0" speed="13.89" length="15.24" shape="-76.47,171.19 -75.76,167.88 -75.48,164.76 -75.48,161.14 -75.59,156.38"/>
        <lane id=":J15_1_1" index="1" speed="13.89" length="15.24" shape="-76.47,171.19 -75.26,167.92 -73.88,164.83 -72.78,161.21 -72.39,156.31"/>
    </edge>
    <edge id=":J17_0" function="internal">
        <lane id=":J17_0_0" index="0" speed="13.89" length="12.09" shape="123.13,-109.86 120.03,-109.94 117.65,-109.64 115.20,-108.94 111.84,-107.79"/>
        <lane id=":J17_0_1" index="1" speed="13.89" length="12.09" shape="123.13,-109.86 119.93,-110.43 117.30,-111.21 114.51,-111.56 110.81,-110.82"/>
    </edge>
    <edge id=":J17_2" function="internal">
        <lane id=":J17_2_0" index="0" speed="13.89" length="13.72" shape="109.79,-113.86 113.20,-114.45 116.48,-114.18 119.79,-113.55 123.35,-113.05"/>
    </edge>
    <edge id=":J18_0" function="internal">
        <lane id=":J18_0_0" index="0" speed="13.89" length="6.36" shape="122.03,99.47 120.21,99.45 119.00,100.27 117.76,101.20 115.87,101.52"/>
        <lane id=":J18_0_1" index="1" speed="13.89" length="6.36" shape="122.03,99.47 120.33,98.98 119.15,98.70 117.95,98.52 116.19,98.33"/>
    </edge>
    <edge id=":J18_2" function="internal">
        <lane id=":J18_2_0" index="0" speed="13.89" length="7.17" shape="116.82,91.96 118.85,92.66 119.92,93.92 120.98,95.31 122.93,96.39"/>
        <lane id=":J18_2_1" index="1" speed="13.89" length="7.17" shape="116.50,95.15 118.44,95.35 119.76,95.55 121.06,95.86 122.93,96.39"/>
    </edge>
    <edge id=":J19_0" function="internal">
        <lane id=":J19_0_0" index="0" speed="13.89" length="0.66" shape="-307.18,140.29 -307.33,140.42 -307.43,140.52 -307.50,140.63 -307.59,140.80"/>
    </edge>
    <edge id=":J19_1" function="internal">
        <lane id=":J19_1_0" index="0" speed="8.82" length="1.98" shape="-310.45,139.37 -310.18,138.85 -309.96,138.51 -309.68,138.22 -309.23,137.83"/>
    </edge>
    <edge id=":J2_0" function="internal">
        <lane id=":J2_0_0" index="0" speed="7.45" length="2.65" shape="456.46,89.31 456.32,90.08 456.16,90.60 455.88,91.07 455.39,91.68"/>
    </edge>
    <edge id=":J2_1" function="internal">
        <lane id=":J2_1_0" index="0" speed="13.89" length="0.88" shape="452.94,89.62 453.10,89.42 453.19,89.26 453.25,89.09 453.29,88.83"/>
    </edge>
    <edge id=":J20_0" function="internal">
        <lane id=":J20_0_0" index="0" speed="6.41" length="4.51" shape="-115.52,328.20 -115.94,329.28 -116.57,330.18 -117.39,330.90 -118.43,331.43"/>
    </edge>
    <edge id=":J20_1" function="internal">
        <lane id=":J20_1_0" index="0" speed="4.08" length="1.50" shape="-119.58,328.44 -119.24,328.26 -118.96,328.03 -118.75,327.73 -118.61,327.37"/>
    </edge>
    <edge id=":J22_0" function="internal">
        <lane id=":J22_0_0" index="0" speed="13.89" length="0.10" shape="-20.15,-15.78 -20.22,-15.83"/>
    </edge>
    <edge id=":J23_0" function="internal">
        <lane id=":J23_0_0" index="0" speed="6.22" length="5.55" shape="-221.18,371.08 -222.59,371.43 -223.91,371.37 -225.14,370.89 -226.29,370.00"/>
    </edge>
    <edge id=":J23_1" function="internal">
        <lane id=":J23_1_0" index="0" speed="3.98" length="1.85" shape="-224.03,367.73 -223.65,368.03 -223.24,368.19 -222.80,368.21 -222.33,368.09"/>
    </edge>
    <edge id=":J24_0" function="internal">
        <lane id=":J24_0_0" index="0" speed="9.43" length="1.84" shape="-305.28,291.56 -305.66,291.17 -305.90,290.88 -306.08,290.55 -306.30,290.06"/>
    </edge>
    <edge id=":J24_1" function="internal">
        <lane id=":J24_1_0" index="0" speed="13.89" length="0.61" shape="-303.37,288.79 -303.29,288.95 -303.23,289.06 -303.15,289.16 -303.02,289.29"/>
    </edge>
    <edge id=":J25_0" function="internal">
        <lane id=":J25_0_0" index="0" speed="4.45" length="1.00" shape="-50.13,120.20 -50.41,120.11 -50.59,120.01 -50.74,119.87 -50.92,119.63"/>
    </edge>
    <edge id=":J26_0" function="internal">
        <lane id=":J26_0_0" index="0" speed="6.22" length="5.58" shape="386.56,173.79 385.49,174.78 384.30,175.37 382.98,175.54 381.53,175.31"/>
    </edge>
    <edge id=":J26_1" function="internal">
        <lane id=":J26_1_0" index="0" speed="3.98" length="1.86" shape="382.43,172.24 382.91,172.32 383.35,172.26 383.75,172.06 384.11,171.73"/>
    </edge>
    <edge id=":J27_0" function="internal">
        <lane id=":J27_0_0" index="0" speed="6.49" length="4.19" shape="-342.29,206.63 -342.61,205.61 -342.70,204.59 -342.55,203.58 -342.17,202.58"/>
    </edge>
    <edge id=":J27_1" function="internal">
        <lane id=":J27_1_0" index="0" speed="4.12" length="1.40" shape="-339.31,204.01 -339.44,204.35 -339.49,204.69 -339.46,205.02 -339.35,205.37"/>
    </edge>
    <edge id=":J3_0" function="internal">
        <lane id=":J3_0_0" index="0" speed="4.04" length="1.63" shape="79.33,44.81 79.67,45.07 79.90,45.38 80.05,45.75 80.10,46.17"/>
    </edge>
    <edge id=":J4_0" function="internal">
        <lane id=":J4_0_0" index="0" speed="3.99" length="1.80" shape="80.72,118.59 80.67,119.05 80.50,119.45 80.22,119.78 79.83,120.03"/>
    </edge>
    <edge id=":J5_0" function="internal">
        <lane id=":J5_0_0" index="0" speed="4.24" length="1.25" shape="28.89,145.19 28.55,145.35 28.30,145.41 28.04,145.38 27.69,145.28"/>
    </edge>
    <edge id=":J8_0" function="internal">
        <lane id=":J8_0_0" index="0" speed="8.88" length="5.47" shape="-244.81,91.09 -246.43,91.10 -247.59,91.19 -248.62,91.58 -249.91,92.51"/>
    </edge>
    <edge id=":J8_1" function="internal">
        <lane id=":J8_1_0" index="0" speed="11.37" length="9.16" shape="-251.95,90.05 -250.06,88.04 -248.86,86.36 -247.46,85.19 -245.00,84.69"/>
    </edge>
    <edge id=":J9_0" function="internal">
        <lane id=":J9_0_0" index="0" speed="13.89" length="24.79" shape="-151.57,93.25 -155.94,91.83 -161.74,90.40 -168.52,89.34 -175.88,89.05"/>
    </edge>
    <edge id=":J9_1" function="internal">
        <lane id=":J9_1_0" index="0" speed="13.89" length="25.07" shape="-150.81,88.75 -175.88,89.05"/>
        <lane id=":J9_1_1" index="1" speed="13.89" length="25.11" shape="-150.86,85.55 -175.97,85.85"/>
    </edge>
    <edge id=":J9_3" function="internal">
        <lane id=":J9_3_0" index="0" speed="13.89" length="15.96" shape="-176.16,79.45 -171.01,79.31 -167.05,79.08 -163.72,78.52 -160.44,77.40"/>
    </edge>
    <edge id=":J9_4" function="internal">
        <lane id=":J9_4_0" index="0" speed="13.89" length="25.15" shape="-176.07,82.65 -150.92,82.19"/>
    </edge>

    <edge id="-E0" from="J0" to="J17" priority="-1">
        <lane id="-E0_0" index="0" speed="13.89" length="221.31" shape="343.93,-94.82 123.13,-109.86"/>
    </edge>
    <edge id="-E1" from="J1" to="J0" priority="-1">
        <lane id="-E1_0" index="0" speed="13.89" length="141.37" shape="470.20,-29.84 344.56,-94.64"/>
    </edge>
    <edge id="-E10" from="J11" to="J10" priority="-1">
        <lane id="-E10_0" index="0" speed="13.89" length="78.75" shape="-76.08,37.21 -77.97,-41.51"/>
        <lane id="-E10_1" index="1" speed="13.89" length="78.75" shape="-72.89,37.14 -74.77,-41.59"/>
    </edge>
    <edge id="-E11" from="J12" to="J9" priority="-1">
        <lane id="-E11_0" index="0" speed="13.89" length="73.09" shape="-77.73,88.13 -150.81,88.75"/>
        <lane id="-E11_1" index="1" speed="13.89" length="73.09" shape="-77.76,84.93 -150.86,85.55"/>
    </edge>
    <edge id="-E12" from="J13" to="J12" priority="-1">
        <lane id="-E12_0" index="0" speed="13.89" length="113.47" shape="41.99,91.63 -71.29,85.17"/>
    </edge>
    <edge id="-E14" from="J14" to="J11" priority="-1">
        <lane id="-E14_0" index="0" speed="13.89" length="71.43" shape="-73.10,116.19 -72.82,44.76"/>
    </edge>
    <edge id="-E15" from="J15" to="J14" priority="-1">
        <lane id="-E15_0" index="0" speed="13.89" length="30.52" shape="-75.59,156.38 -76.21,125.86"/>
        <lane id="-E15_1" index="1" speed="13.89" length="30.52" shape="-72.39,156.31 -73.01,125.80"/>
    </edge>
    <edge id="-E20" from="J10" to="J17" priority="-1">
        <lane id="-E20_0" index="0" speed="13.89" length="181.08" shape="-61.75,-55.85 109.79,-113.86"/>
    </edge>
    <edge id="-E21" from="J18" to="J13" priority="-1">
        <lane id="-E21_0" index="0" speed="13.89" length="59.62" shape="115.87,101.52 56.55,95.66"/>
        <lane id="-E21_1" index="1" speed="13.89" length="59.62" shape="116.19,98.33 56.86,92.47"/>
    </edge>
    <edge id="-E22" from="J19" to="J8" priority="-1">
        <lane id="-E22_0" index="0" speed="13.89" length="74.59" shape="-309.23,137.83 -251.95,90.05"/>
    </edge>
    <edge id="-E23" from="J20" to="J15" priority="-1">
        <lane id="-E23_0" index="0" speed="13.89" length="161.76" shape="-118.61,327.37 -76.47,171.19"/>
    </edge>
    <edge id="-E26" from="J23" to="J20" priority="-1">
        <lane id="-E26_0" index="0" speed="13.89" length="110.13" shape="-222.33,368.09 -119.58,328.44"/>
    </edge>
    <edge id="-E27" from="J24" to="J23" priority="-1">
        <lane id="-E27_0" index="0" speed="13.89" length="111.32" shape="-303.02,289.29 -224.03,367.73"/>
    </edge>
    <edge id="-E3" from="J2" to="J1" priority="-1">
        <lane id="-E3_0" index="0" speed="13.89" length="118.35" shape="453.29,88.83 471.04,-28.18"/>
    </edge>
    <edge id="-E30" from="J26" to="J18" priority="-1">
        <lane id="-E30_0" index="0" speed="13.89" length="270.36" shape="381.53,175.31 122.03,99.47"/>
    </edge>
    <edge id="-E32" from="J27" to="J24" priority="-1">
        <lane id="-E32_0" index="0" speed="13.89" length="90.85" shape="-339.35,205.37 -303.37,288.79"/>
    </edge>
    <edge id="-E33" from="J19" to="J27" priority="-1">
        <lane id="-E33_0" index="0" speed="13.89" length="70.72" shape="-307.59,140.80 -339.31,204.01"/>
    </edge>
    <edge id="-E4" from="J26" to="J2" priority="-1">
        <lane id="-E4_0" index="0" speed="13.89" length="107.14" shape="384.11,171.73 452.94,89.62"/>
    </edge>
    <edge id="-E9" from="J9" to="J8" priority="-1" shape="-172.02,84.13 -135.43,82.90 -244.95,86.29">
        <lane id="-E9_0" index="0" speed="13.89" length="68.96" shape="-175.88,89.05 -244.81,91.09"/>
        <lane id="-E9_1" index="1" speed="13.89" length="68.96" shape="-175.97,85.85 -244.90,87.89"/>
    </edge>
    <edge id="E0" from="J17" to="J0" priority="-1">
        <lane id="E0_0" index="0" speed="13.89" length="221.31" shape="123.35,-113.05 344.15,-98.01"/>
    </edge>
    <edge id="E1" from="J0" to="J1" priority="-1">
        <lane id="E1_0" index="0" speed="13.89" length="141.37" shape="346.02,-97.49 471.66,-32.68"/>
    </edge>
    <edge id="E10" from="J10" to="J11" priority="-1">
        <lane id="E10_0" index="0" speed="13.89" length="78.75" shape="-68.38,-41.74 -66.49,36.98"/>
        <lane id="E10_1" index="1" speed="13.89" length="78.75" shape="-71.57,-41.67 -69.69,37.06"/>
    </edge>
    <edge id="E11" from="J9" to="J12" priority="-1" shape="-172.02,84.13 -93.02,82.84 -75.90,83.31">
        <lane id="E11_0" index="0" speed="13.89" length="73.15" shape="-150.92,82.19 -93.01,81.24 -77.78,81.66"/>
    </edge>
    <edge id="E12" from="J12" to="J13" priority="-1">
        <lane id="E12_0" index="0" speed="13.89" length="113.47" shape="-71.11,81.98 42.17,88.43"/>
    </edge>
    <edge id="E14" from="J11" to="J14" priority="-1">
        <lane id="E14_0" index="0" speed="13.89" length="71.43" shape="-69.62,44.77 -69.90,116.20"/>
    </edge>
    <edge id="E15" from="J14" to="J15" priority="-1">
        <lane id="E15_0" index="0" speed="13.89" length="30.52" shape="-66.62,125.67 -65.99,156.18"/>
        <lane id="E15_1" index="1" speed="13.89" length="30.52" shape="-69.81,125.73 -69.19,156.25"/>
    </edge>
    <edge id="E16" from="J14" to="J9" priority="-1">
        <lane id="E16_0" index="0" speed="13.89" length="75.70" shape="-80.41,119.07 -151.57,93.25"/>
    </edge>
    <edge id="E18" from="J9" to="J11" priority="-1">
        <lane id="E18_0" index="0" speed="13.89" length="88.18" shape="-160.44,77.40 -79.47,42.49"/>
    </edge>
    <edge id="E20" from="J17" to="J10" priority="-1">
        <lane id="E20_0" index="0" speed="13.89" length="181.08" shape="111.84,-107.79 -59.70,-49.79"/>
        <lane id="E20_1" index="1" speed="13.89" length="181.08" shape="110.81,-110.82 -60.72,-52.82"/>
    </edge>
    <edge id="E21" from="J13" to="J18" priority="-1">
        <lane id="E21_0" index="0" speed="13.89" length="59.62" shape="57.49,86.10 116.82,91.96"/>
        <lane id="E21_1" index="1" speed="13.89" length="59.62" shape="57.18,89.29 116.50,95.15"/>
    </edge>
    <edge id="E22" from="J8" to="J19" priority="-1">
        <lane id="E22_0" index="0" speed="13.89" length="74.59" shape="-249.91,92.51 -307.18,140.29"/>
    </edge>
    <edge id="E23" from="J15" to="J20" priority="-1">
        <lane id="E23_0" index="0" speed="13.89" length="161.76" shape="-73.38,172.03 -115.52,328.20"/>
    </edge>
    <edge id="E25" from="J10" to="J22" priority="-1">
        <lane id="E25_0" index="0" speed="13.89" length="48.97" shape="-60.57,-43.41 -20.15,-15.78"/>
    </edge>
    <edge id="E26" from="J20" to="J23" priority="-1">
        <lane id="E26_0" index="0" speed="13.89" length="110.13" shape="-118.43,331.43 -221.18,371.08"/>
    </edge>
    <edge id="E27" from="J23" to="J24" priority="-1">
        <lane id="E27_0" index="0" speed="13.89" length="111.32" shape="-226.29,370.00 -305.28,291.56"/>
    </edge>
    <edge id="E28" from="J25" to="J12" priority="-1">
        <lane id="E28_0" index="0" speed="13.89" length="36.43" shape="-50.92,119.63 -72.64,90.38"/>
    </edge>
    <edge id="E29" from="J13" to="J14" priority="-1">
        <lane id="E29_0" index="0" speed="13.89" length="107.39" shape="42.36,95.91 -62.28,120.10"/>
    </edge>
    <edge id="E3" from="J1" to="J2" priority="-1">
        <lane id="E3_0" index="0" speed="13.89" length="118.35" shape="474.21,-27.70 456.46,89.31"/>
    </edge>
    <edge id="E30" from="J18" to="J26" priority="-1">
        <lane id="E30_0" index="0" speed="13.89" length="270.36" shape="122.93,96.39 382.43,172.24"/>
    </edge>
    <edge id="E31" from="J11" to="J13" priority="-1">
        <lane id="E31_0" index="0" speed="13.89" length="113.16" shape="-62.89,42.21 42.48,83.47"/>
    </edge>
    <edge id="E32" from="J24" to="J27" priority="-1">
        <lane id="E32_0" index="0" speed="13.89" length="90.85" shape="-306.30,290.06 -342.29,206.63"/>
    </edge>
    <edge id="E33" from="J27" to="J19" priority="-1">
        <lane id="E33_0" index="0" speed="13.89" length="70.72" shape="-342.17,202.58 -310.45,139.37"/>
    </edge>
    <edge id="E4" from="J2" to="J26" priority="-1">
        <lane id="E4_0" index="0" speed="13.89" length="107.14" shape="455.39,91.68 386.56,173.79"/>
    </edge>
    <edge id="E5" from="J22" to="J3" priority="-1">
        <lane id="E5_0" index="0" speed="13.89" length="116.57" shape="-20.22,-15.83 79.33,44.81"/>
    </edge>
    <edge id="E6" from="J3" to="J4" priority="-1">
        <lane id="E6_0" index="0" speed="13.89" length="72.42" shape="80.10,46.17 80.72,118.59"/>
    </edge>
    <edge id="E7" from="J4" to="J5" priority="-1">
        <lane id="E7_0" index="0" speed="13.89" length="56.81" shape="79.83,120.03 28.89,145.19"/>
    </edge>
    <edge id="E8" from="J5" to="J25" priority="-1">
        <lane id="E8_0" index="0" speed="13.89" length="81.76" shape="27.69,145.28 -50.13,120.20"/>
    </edge>
    <edge id="E9" from="J8" to="J9" priority="-1">
        <lane id="E9_0" index="0" speed="13.89" length="68.96" shape="-245.09,81.49 -176.16,79.45"/>
        <lane id="E9_1" index="1" speed="13.89" length="68.96" shape="-245.00,84.69 -176.07,82.65"/>
    </edge>

    <junction id="J0" type="priority" x="344.70" y="-96.37" incLanes="-E1_0 E0_0" intLanes=":J0_0_0 :J0_1_0" shape="343.82,-93.22 346.76,-98.91 345.88,-99.34 345.56,-99.45 345.22,-99.52 344.81,-99.57 344.26,-99.61">
        <request index="0" response="00" foes="00" cont="0"/>
        <request index="1" response="00" foes="00" cont="0"/>
    </junction>
    <junction id="J1" type="priority" x="472.97" y="-30.21" incLanes="E1_0 -E3_0" intLanes=":J1_0_0 :J1_1_0" shape="472.40,-34.11 469.46,-28.42 475.79,-27.46 475.72,-30.22 475.29,-31.39 474.59,-32.43 473.62,-33.34">
        <request index="0" response="00" foes="00" cont="0"/>
        <request index="1" response="00" foes="00" cont="0"/>
    </junction>
    <junction id="J10" type="priority" x="-73.38" y="-50.23" incLanes="-E10_0 -E10_1 E20_0 E20_1" intLanes=":J10_0_0 :J10_1_0 :J10_2_0" shape="-79.57,-41.48 -66.78,-41.78 -66.23,-43.59 -65.50,-43.86 -64.46,-43.70 -63.12,-43.11 -61.48,-42.09 -59.67,-44.74 -61.08,-46.13 -61.20,-46.75 -60.92,-47.31 -60.25,-47.82 -59.18,-48.27 -62.26,-57.37 -67.62,-55.28 -71.98,-52.96 -75.36,-50.43 -77.75,-47.67 -79.16,-44.68">
        <request index="0" response="000" foes="000" cont="0"/>
        <request index="1" response="000" foes="000" cont="0"/>
        <request index="2" response="000" foes="000" cont="0"/>
    </junction>
    <junction id="J11" type="priority" x="-71.20" y="40.67" incLanes="E10_0 E10_1 E18_0 -E14_0" intLanes=":J11_0_0 :J11_1_0 :J11_2_0 :J11_3_0" shape="-63.47,43.70 -62.31,40.72 -63.71,39.86 -64.21,39.28 -64.57,38.60 -64.80,37.82 -64.89,36.95 -77.68,37.25 -77.92,38.87 -78.26,39.54 -78.73,40.13 -79.34,40.62 -80.10,41.02 -78.83,43.96 -76.37,43.20 -75.52,43.20 -74.90,43.46 -74.54,43.98 -74.42,44.75 -68.02,44.78 -67.51,43.39 -66.87,43.08 -65.99,43.03 -64.86,43.23">
        <request index="0" response="0000" foes="0000" cont="0"/>
        <request index="1" response="0000" foes="0000" cont="0"/>
        <request index="2" response="0000" foes="0000" cont="0"/>
        <request index="3" response="0000" foes="0000" cont="0"/>
    </junction>
    <junction id="J12" type="priority" x="-75.90" y="83.31" incLanes="E28_0 -E12_0 E11_0" intLanes=":J12_0_0 :J12_1_0 :J12_2_0" shape="-73.93,91.34 -71.36,89.43 -72.27,87.90 -72.39,87.38 -72.28,87.02 -71.95,86.81 -71.38,86.77 -71.02,80.38 -77.80,80.06 -77.72,89.73 -76.15,89.89 -75.48,90.12 -74.89,90.43 -74.37,90.84">
        <request index="0" response="000" foes="000" cont="0"/>
        <request index="1" response="000" foes="000" cont="0"/>
        <request index="2" response="000" foes="000" cont="0"/>
    </junction>
    <junction id="J13" type="priority" x="57.02" y="90.88" incLanes="-E21_0 -E21_1 E31_0 E12_0" intLanes=":J13_0_0 :J13_1_0 :J13_2_0 :J13_3_0" shape="56.39,97.25 57.65,84.51 54.49,84.26 52.13,84.13 50.18,83.98 48.27,83.67 46.03,83.05 43.07,81.98 41.90,84.96 42.26,86.83 41.90,93.22 42.00,94.35 42.72,97.47 45.57,96.87 47.71,96.58 49.50,96.53 51.30,96.67 53.48,96.93">
        <request index="0" response="0000" foes="0000" cont="0"/>
        <request index="1" response="0000" foes="0000" cont="0"/>
        <request index="2" response="0000" foes="0000" cont="0"/>
        <request index="3" response="0000" foes="0000" cont="0"/>
    </junction>
    <junction id="J14" type="priority" x="-71.52" y="120.59" incLanes="-E15_0 -E15_1 E29_0 E14_0" intLanes=":J14_0_0 :J14_1_0 :J14_2_0 :J14_3_0" shape="-77.81,125.90 -65.02,125.63 -64.70,123.75 -64.27,123.02 -63.67,122.42 -62.88,121.97 -61.92,121.65 -62.64,118.54 -65.79,118.86 -66.89,118.61 -67.68,118.09 -68.15,117.28 -68.30,116.21 -74.70,116.18 -75.28,117.78 -76.00,118.15 -77.00,118.24 -78.29,118.04 -79.86,117.56 -80.95,120.57 -79.25,121.66 -78.64,122.46 -78.20,123.43 -77.92,124.58">
        <request index="0" response="0000" foes="0000" cont="0"/>
        <request index="1" response="0000" foes="0000" cont="0"/>
        <request index="2" response="0000" foes="0000" cont="0"/>
        <request index="3" response="0000" foes="0000" cont="0"/>
    </junction>
    <junction id="J15" type="priority" x="-70.79" y="156.28" incLanes="E15_0 E15_1 -E23_0" intLanes=":J15_0_0 :J15_1_0 :J15_1_1" shape="-64.39,156.15 -77.19,156.41 -77.07,159.49 -76.92,161.79 -76.84,163.69 -76.94,165.56 -77.29,167.80 -78.02,170.78 -71.84,172.44 -70.46,168.86 -68.83,166.37 -67.17,164.41 -65.72,162.43 -64.72,159.87">
        <request index="0" response="000" foes="000" cont="0"/>
        <request index="1" response="000" foes="000" cont="0"/>
        <request index="2" response="000" foes="000" cont="0"/>
    </junction>
    <junction id="J17" type="priority" x="110.30" y="-112.34" incLanes="-E0_0 -E20_0" intLanes=":J17_0_0 :J17_0_1 :J17_2_0" shape="123.03,-108.27 123.46,-114.65 120.42,-115.03 118.13,-115.56 116.23,-116.05 114.37,-116.30 112.17,-116.14 109.27,-115.37 112.35,-106.28 114.55,-107.05 116.20,-107.65 117.59,-108.06 118.99,-108.30 120.71,-108.37">
        <request index="0" response="000" foes="000" cont="0"/>
        <request index="1" response="000" foes="000" cont="0"/>
        <request index="2" response="000" foes="000" cont="0"/>
    </junction>
    <junction id="J18" type="priority" x="119.47" y="97.05" incLanes="-E30_0 E21_0 E21_1" intLanes=":J18_0_0 :J18_0_1 :J18_2_0 :J18_2_1" shape="121.59,101.00 123.38,94.86 120.92,93.29 120.23,92.35 119.53,91.46 118.54,90.76 116.98,90.37 115.72,103.11 117.95,102.51 118.69,101.84 119.42,101.23 120.33,100.88">
        <request index="0" response="0000" foes="0000" cont="0"/>
        <request index="1" response="0000" foes="0000" cont="0"/>
        <request index="2" response="1000" foes="1000" cont="0"/>
        <request index="3" response="0000" foes="0100" cont="0"/>
    </junction>
    <junction id="J19" type="priority" x="-308.72" y="139.49" incLanes="E22_0 E33_0" intLanes=":J19_0_0 :J19_1_0" shape="-306.16,141.52 -310.26,136.61 -310.99,137.25 -311.22,137.50 -311.42,137.79 -311.63,138.15 -311.88,138.65">
        <request index="0" response="00" foes="00" cont="0"/>
        <request index="1" response="00" foes="00" cont="0"/>
    </junction>
    <junction id="J2" type="priority" x="454.74" y="89.96" incLanes="E3_0 -E4_0" intLanes=":J2_0_0 :J2_1_0" shape="458.04,89.55 451.71,88.59 456.62,92.70 457.42,91.68 457.65,91.27 457.80,90.83 457.92,90.29">
        <request index="0" response="00" foes="00" cont="0"/>
        <request index="1" response="00" foes="00" cont="0"/>
    </junction>
    <junction id="J20" type="priority" x="-117.49" y="329.35" incLanes="E23_0 -E26_0" intLanes=":J20_0_0 :J20_1_0" shape="-113.98,328.62 -120.16,326.95 -117.85,332.92 -116.08,331.92 -115.37,331.26 -114.78,330.49 -114.32,329.61">
        <request index="0" response="00" foes="00" cont="0"/>
        <request index="1" response="00" foes="00" cont="0"/>
    </junction>
    <junction id="J22" type="priority" x="-21.05" y="-14.46" incLanes="E25_0" intLanes=":J22_0_0" shape="-20.98,-14.42 -19.31,-17.15 -21.12,-14.51">
        <request index="0" response="0" foes="0" cont="0"/>
    </junction>
    <junction id="J23" type="priority" x="-223.69" y="370.33" incLanes="E26_0 -E27_0" intLanes=":J23_0_0 :J23_1_0" shape="-220.60,372.57 -222.91,366.60 -227.42,371.14 -225.35,372.60 -224.24,372.96 -223.08,373.07 -221.87,372.94">
        <request index="0" response="00" foes="00" cont="0"/>
        <request index="1" response="00" foes="00" cont="0"/>
    </junction>
    <junction id="J24" type="priority" x="-304.59" y="289.99" incLanes="E27_0 -E32_0" intLanes=":J24_0_0 :J24_1_0" shape="-306.41,292.70 -301.90,288.15 -307.77,290.69 -307.40,291.52 -307.23,291.79 -307.04,292.04 -306.77,292.33">
        <request index="0" response="00" foes="00" cont="0"/>
        <request index="1" response="00" foes="00" cont="0"/>
    </junction>
    <junction id="J25" type="priority" x="-49.64" y="118.68" incLanes="E8_0" intLanes=":J25_0_0" shape="-50.62,121.73 -49.64,118.68 -52.21,120.59 -51.75,121.16 -51.55,121.34 -51.32,121.47 -51.02,121.59">
        <request index="0" response="0" foes="0" cont="0"/>
    </junction>
    <junction id="J26" type="priority" x="383.99" y="174.36" incLanes="E4_0 E30_0" intLanes=":J26_0_0 :J26_1_0" shape="387.79,174.81 382.88,170.70 381.09,176.84 383.61,177.14 384.77,176.92 385.85,176.46 386.85,175.76">
        <request index="0" response="00" foes="00" cont="0"/>
        <request index="1" response="00" foes="00" cont="0"/>
    </junction>