<?xml version="1.0" encoding="UTF-8"?>

<!-- generated on 2023-04-27 18:27:02 by Eclipse SUMO netedit Version 1.17.0
<configuration xmlns:xsi="http://www.w3.org/2001/XMLSchema-instance" xsi:noNamespaceSchemaLocation="http://sumo.dlr.de/xsd/netconvertConfiguration.xsd">

    <input>
        <sumo-net-file value="C:\Users\Lenovo T470\Documents\skola\Bakalarka\hrajkanie sa\sumo\roundabout_sliplane\roundabout_sliplane.net.xml"/>
    </input>

    <output>
        <output-file value="C:\Users\Lenovo T470\Documents\skola\Bakalarka\hrajkanie sa\sumo\roundabout_sliplane\roundabout_sliplane.net.xml"/>
    </output>

    <processing>
        <geometry.min-radius.fix.railways value="false"/>
        <geometry.max-grade.fix value="false"/>
        <offset.disable-normalization value="true"/>
        <lefthand value="0"/>
    </processing>

    <junctions>
        <no-turnarounds value="true"/>
        <junctions.corner-detail value="5"/>
        <junctions.limit-turn-speed value="5.50"/>
        <rectangular-lane-cut value="0"/>
    </junctions>

    <pedestrian>
        <walkingareas value="0"/>
    </pedestrian>

</configuration>
-->

<net version="1.16" junctionCornerDetail="5" limitTurnSpeed="5.50" xmlns:xsi="http://www.w3.org/2001/XMLSchema-instance" xsi:noNamespaceSchemaLocation="http://sumo.dlr.de/xsd/net_file.xsd">

    <location netOffset="0.00,0.00" convBoundary="-315.87,-241.78,347.63,367.30" origBoundary="-10000000000.00,-10000000000.00,10000000000.00,10000000000.00" projParameter="!"/>

    <edge id=":J1_0" function="internal">
        <lane id=":J1_0_0" index="0" speed="13.89" length="8.71" shape="-71.57,69.42 -73.83,68.21 -75.50,67.57 -77.27,67.32 -79.84,67.27"/>
    </edge>
    <edge id=":J1_1" function="internal">
        <lane id=":J1_1_0" index="0" speed="13.89" length="9.26" shape="-70.57,64.11 -79.83,64.07"/>
    </edge>
    <edge id=":J1_2" function="internal">
        <lane id=":J1_2_0" index="0" speed="13.89" length="9.20" shape="-79.82,57.67 -77.10,57.65 -75.23,57.45 -73.44,56.86 -71.00,55.68"/>
    </edge>
    <edge id=":J1_3" function="internal">
        <lane id=":J1_3_0" index="0" speed="13.89" length="9.27" shape="-79.83,60.87 -70.56,60.91"/>
    </edge>
    <edge id=":J13_0" function="internal">
        <lane id=":J13_0_0" index="0" speed="11.09" length="4.67" shape="118.79,74.27 117.40,74.26 116.44,74.31 115.52,74.56 114.28,75.15"/>
    </edge>
    <edge id=":J13_1" function="internal">
        <lane id=":J13_1_0" index="0" speed="13.89" length="4.52" shape="118.76,71.07 114.24,70.97"/>
    </edge>
    <edge id=":J13_2" function="internal">
        <lane id=":J13_2_0" index="0" speed="8.97" length="3.82" shape="115.10,63.71 116.08,64.27 116.81,64.56 117.59,64.67 118.71,64.68"/>
    </edge>
    <edge id=":J13_3" function="internal">
        <lane id=":J13_3_0" index="0" speed="13.89" length="4.46" shape="114.28,67.77 118.74,67.88"/>
    </edge>
    <edge id=":J14_0" function="internal">
        <lane id=":J14_0_0" index="0" speed="6.56" length="7.65" shape="23.85,116.60 21.93,117.29 20.55,118.42 19.72,120.00 19.42,122.02"/>
    </edge>
    <edge id=":J14_1" function="internal">
        <lane id=":J14_1_0" index="0" speed="13.89" length="11.92" shape="23.85,116.60 20.62,117.17 17.94,117.28 15.28,116.90 12.14,115.98"/>
    </edge>
    <edge id=":J14_2" function="internal">
        <lane id=":J14_2_0" index="0" speed="6.92" length="7.82" shape="16.22,121.99 15.98,119.88 15.22,118.18 13.94,116.88 12.14,115.98"/>
    </edge>
    <edge id=":J3_0" function="internal">
        <lane id=":J3_0_0" index="0" speed="6.58" length="7.37" shape="-33.29,68.37 -34.05,66.57 -35.19,65.28 -36.74,64.50 -38.67,64.24"/>
    </edge>
    <edge id=":J3_1" function="internal">
        <lane id=":J3_1_0" index="0" speed="13.52" length="11.50" shape="-33.29,68.37 -34.02,65.24 -34.21,62.71 -33.83,60.20 -32.85,57.14"/>
    </edge>
    <edge id=":J3_2" function="internal">
        <lane id=":J3_2_0" index="0" speed="6.88" length="7.50" shape="-38.66,61.04 -36.66,60.80 -35.03,60.07 -33.76,58.85 -32.85,57.14"/>
    </edge>
    <edge id=":J4_0" function="internal">
        <lane id=":J4_0_0" index="0" speed="7.30" length="6.83" shape="28.30,4.26 28.49,6.09 29.07,7.65 30.04,8.96 31.38,10.01"/>
    </edge>
    <edge id=":J4_1" function="internal">
        <lane id=":J4_1_0" index="0" speed="6.65" length="6.64" shape="21.64,9.45 23.16,8.59 24.24,7.44 24.88,6.00 25.10,4.27"/>
    </edge>
    <edge id=":J4_2" function="internal">
        <lane id=":J4_2_0" index="0" speed="9.35" length="10.13" shape="21.64,9.45 24.20,8.68 26.68,8.51 29.07,8.95 31.38,10.01"/>
    </edge>
    <edge id=":J5_0" function="internal">
        <lane id=":J5_0_0" index="0" speed="13.89" length="5.34" shape="25.06,-13.65 25.04,-18.99"/>
    </edge>
    <edge id=":J5_1" function="internal">
        <lane id=":J5_1_0" index="0" speed="9.47" length="5.20" shape="31.45,-18.95 31.43,-17.40 31.48,-16.32 31.81,-15.31 32.58,-14.01"/>
    </edge>
    <edge id=":J5_2" function="internal">
        <lane id=":J5_2_0" index="0" speed="13.89" length="5.31" shape="28.25,-18.97 28.26,-13.66"/>
    </edge>
    <edge id=":J5_3" function="internal">
        <lane id=":J5_3_0" index="0" speed="7.31" length="4.12" shape="20.42,-15.31 21.20,-16.23 21.62,-16.97 21.80,-17.80 21.84,-19.01"/>
    </edge>
    <edge id=":J6_0" function="internal">
        <lane id=":J6_0_0" index="0" speed="7.03" length="7.14" shape="83.51,70.62 81.61,70.82 80.01,71.46 78.71,72.54 77.72,74.06"/>
    </edge>
    <edge id=":J6_1" function="internal">
        <lane id=":J6_1_0" index="0" speed="6.61" length="6.98" shape="78.30,63.59 79.10,65.25 80.24,66.44 81.72,67.16 83.55,67.42"/>
    </edge>
    <edge id=":J6_2" function="internal">
        <lane id=":J6_2_0" index="0" speed="11.07" length="10.91" shape="78.30,63.59 79.18,66.59 79.42,68.91 78.95,71.19 77.72,74.06"/>
    </edge>
    <edge id=":J7_0" function="internal">
        <lane id=":J7_0_0" index="0" speed="7.80" length="3.99" shape="23.51,152.22 22.82,153.17 22.45,153.90 22.29,154.71 22.26,155.88"/>
    </edge>
    <edge id=":J7_1" function="internal">
        <lane id=":J7_1_0" index="0" speed="13.89" length="4.97" shape="19.13,150.90 19.06,155.87"/>
    </edge>
    <edge id=":J7_2" function="internal">
        <lane id=":J7_2_0" index="0" speed="9.99" length="5.01" shape="12.66,155.86 12.69,154.37 12.64,153.33 12.35,152.35 11.65,151.07"/>
    </edge>
    <edge id=":J7_3" function="internal">
        <lane id=":J7_3_0" index="0" speed="13.89" length="5.00" shape="15.86,155.86 15.93,150.87"/>
    </edge>

    <edge id="-E15" from="J3" to="J1" priority="-1">
        <lane id="-E15_0" index="0" speed="13.89" length="31.90" shape="-38.67,64.24 -70.57,64.11"/>
    </edge>
    <edge id="-E16" from="J4" to="J5" priority="-1">
        <lane id="-E16_0" index="0" speed="13.89" length="17.92" shape="25.10,4.27 25.06,-13.65"/>
    </edge>
    <edge id="-E19" from="J14" to="J7" priority="-1">
        <lane id="-E19_0" index="0" speed="13.89" length="28.88" shape="19.42,122.02 19.13,150.90"/>
    </edge>
    <edge id="-E6" from="J5" to="J9" priority="-1" shape="26.65,-19.88 26.98,-73.53 26.37,-241.78">
        <lane id="-E6_0" index="0" speed="13.89" length="222.77" shape="21.84,-19.01 22.18,-73.54 21.57,-241.76"/>
        <lane id="-E6_1" index="1" speed="13.89" length="222.77" shape="25.04,-18.99 25.38,-73.53 24.77,-241.77"/>
    </edge>
    <edge id="-E7" from="J10" to="J1" priority="-1">
        <lane id="-E7_0" index="0" speed="13.89" length="236.04" shape="-315.86,57.34 -79.82,57.67"/>
        <lane id="-E7_1" index="1" speed="13.89" length="236.04" shape="-315.87,60.54 -79.83,60.87"/>
    </edge>
    <edge id="-E8" from="J11" to="J7" priority="-1">
        <lane id="-E8_0" index="0" speed="13.89" length="211.43" shape="12.18,367.29 12.66,155.86"/>
        <lane id="-E8_1" index="1" speed="13.89" length="211.43" shape="15.38,367.30 15.86,155.86"/>
    </edge>
    <edge id="-E9" from="J12" to="J13" priority="-1">
        <lane id="-E9_0" index="0" speed="13.89" length="228.86" shape="347.64,73.73 118.79,74.27"/>
        <lane id="-E9_1" index="1" speed="13.89" length="228.86" shape="347.63,70.53 118.76,71.07"/>
    </edge>
    <edge id="E15" from="J1" to="J3" priority="-1">
        <lane id="E15_0" index="0" speed="13.89" length="31.90" shape="-70.56,60.91 -38.66,61.04"/>
    </edge>
    <edge id="E16" from="J5" to="J4" priority="-1">
        <lane id="E16_0" index="0" speed="13.89" length="17.92" shape="28.26,-13.66 28.30,4.26"/>
    </edge>
    <edge id="E17" from="J13" to="J6" priority="-1">
        <lane id="E17_0" index="0" speed="13.89" length="30.73" shape="114.24,70.97 83.51,70.62"/>
    </edge>
    <edge id="E18" from="J6" to="J13" priority="-1">
        <lane id="E18_0" index="0" speed="13.89" length="30.73" shape="83.55,67.42 114.28,67.77"/>
    </edge>
    <edge id="E19" from="J7" to="J14" priority="-1">
        <lane id="E19_0" index="0" speed="13.89" length="28.88" shape="15.93,150.87 16.22,121.99"/>
    </edge>
    <edge id="E20" from="J4" to="J6" priority="-1" shape="26.71,9.08 50.28,23.16 69.50,42.22 78.40,68.96">
        <lane id="E20_0" index="0" speed="13.89" length="74.25" shape="31.38,10.01 51.27,21.89 70.90,41.35 78.30,63.59"/>
    </edge>
    <edge id="E21" from="J6" to="J14" priority="-1" shape="78.40,68.96 66.64,93.40 47.67,109.88 17.88,116.24">
        <lane id="E21_0" index="0" speed="13.89" length="73.55" shape="77.72,74.06 67.94,94.39 48.41,111.36 23.85,116.60"/>
    </edge>
    <edge id="E22" from="J14" to="J3" priority="-1" shape="17.88,116.24 -9.02,107.08 -26.02,89.11 -33.18,62.66">
        <lane id="E22_0" index="0" speed="13.89" length="71.15" shape="12.14,115.98 -9.91,108.47 -27.46,89.92 -33.29,68.37"/>
    </edge>
    <edge id="E23" from="J3" to="J4" priority="-1" shape="-33.18,62.66 -23.80,37.15 -3.55,21.64 26.71,9.08">
        <lane id="E23_0" index="0" speed="13.89" length="76.68" shape="-32.85,57.14 -25.14,36.16 -4.36,20.24 21.64,9.45"/>
    </edge>
    <edge id="E24" from="J5" to="J13" priority="-1" shape="26.65,-19.88 48.79,12.60 76.90,43.16 121.73,69.46">
        <lane id="E24_0" index="0" speed="13.89" length="115.28" shape="32.58,-14.01 50.05,11.60 77.92,41.90 115.10,63.71"/>
    </edge>
    <edge id="E25" from="J13" to="J7" priority="-1" shape="121.73,69.46 76.08,93.26 49.10,116.07 17.46,157.50">
        <lane id="E25_0" index="0" speed="13.89" length="121.14" shape="114.28,75.15 76.98,94.60 50.27,117.18 23.51,152.22"/>
    </edge>
    <edge id="E26" from="J7" to="J1" priority="-1" shape="17.46,157.50 -6.98,117.51 -36.76,86.97 -80.77,62.47">
        <lane id="E26_0" index="0" speed="13.89" length="119.12" shape="11.65,151.07 -8.25,118.50 -37.74,88.25 -71.57,69.42"/>
    </edge>
    <edge id="E27" from="J1" to="J5" priority="-1" shape="-80.77,62.47 -34.49,38.84 -2.87,13.14 26.65,-19.88">
        <lane id="E27_0" index="0" speed="13.89" length="117.06" shape="-71.00,55.68 -35.37,37.49 -3.98,11.98 20.42,-15.31"/>
    </edge>
    <edge id="E6" from="J9" to="J5" priority="-1">
        <lane id="E6_0" index="0" speed="13.89" length="222.82" shape="31.17,-241.79 31.45,-18.95"/>
        <lane id="E6_1" index="1" speed="13.89" length="222.82" shape="27.97,-241.78 28.25,-18.97"/>
    </edge>
    <edge id="E7" from="J1" to="J10" priority="-1">
        <lane id="E7_0" index="0" speed="13.89" length="236.04" shape="-79.84,67.27 -315.88,66.94"/>
        <lane id="E7_1" index="1" speed="13.89" length="236.04" shape="-79.83,64.07 -315.87,63.74"/>
    </edge>
    <edge id="E8" from="J7" to="J11" priority="-1">
        <lane id="E8_0" index="0" speed="13.89" length="211.43" shape="22.26,155.88 21.78,367.31"/>
        <lane id="E8_1" index="1" speed="13.89" length="211.43" shape="19.06,155.87 18.58,367.30"/>
    </edge>
    <edge id="E9" from="J13" to="J12" priority="-1" shape="121.73,69.46 228.99,68.66 347.63,68.93">
        <lane id="E9_0" index="0" speed="13.89" length="228.91" shape="118.71,64.68 228.98,63.86 347.64,64.13"/>
        <lane id="E9_1" index="1" speed="13.89" length="228.91" shape="118.74,67.88 228.99,67.06 347.63,67.33"/>
    </edge>

    <junction id="J1" type="priority" x="-80.77" y="62.47" incLanes="E26_0 -E15_0 -E7_0 -E7_1" intLanes=":J1_0_0 :J1_1_0 :J1_2_0 :J1_3_0" shape="-72.35,70.82 -70.79,68.03 -70.58,65.71 -70.55,59.31 -70.27,57.11 -71.72,54.26 -74.54,55.57 -75.60,55.87 -76.70,56.02 -78.04,56.07 -79.82,56.07 -79.84,68.87 -76.93,68.96 -75.91,69.14 -74.93,69.48 -73.81,70.02">
        <request index="0" response="0000" foes="0000" cont="0"/>
        <request index="1" response="0000" foes="0000" cont="0"/>
        <request index="2" response="0000" foes="0000" cont="0"/>
        <request index="3" response="0000" foes="0000" cont="0"/>
    </junction>
    <junction id="J10" type="dead_end" x="-315.87" y="62.14" incLanes="E7_0 E7_1" intLanes="" shape="-315.87,62.14 -315.88,68.54 -315.87,62.14"/>
    <junction id="J11" type="dead_end" x="16.98" y="367.30" incLanes="E8_0 E8_1" intLanes="" shape="16.98,367.30 23.38,367.31 16.98,367.30"/>
    <junction id="J12" type="dead_end" x="347.63" y="68.93" incLanes="E9_0 E9_1" intLanes="" shape="347.63,68.93 347.65,75.33 347.64,62.53"/>
    <junction id="J13" type="priority" x="121.73" y="69.46" incLanes="-E9_0 -E9_1 E24_0 E18_0" intLanes=":J13_0_0 :J13_1_0 :J13_2_0 :J13_3_0" shape="118.80,75.87 118.70,63.08 117.61,63.06 117.23,62.99 116.87,62.86 116.45,62.64 115.91,62.33 114.29,65.09 114.30,66.17 114.22,72.57 114.82,72.71 114.80,72.87 114.59,73.09 114.17,73.38 113.54,73.73 115.02,76.57 116.33,75.99 116.83,75.89 117.34,75.85">
        <request index="0" response="0000" foes="0000" cont="0"/>
        <request index="1" response="0000" foes="0000" cont="0"/>
        <request index="2" response="0000" foes="0000" cont="0"/>
        <request index="3" response="0000" foes="0000" cont="0"/>
    </junction>
    <junction id="J14" type="priority" x="17.88" y="116.24" incLanes="E21_0 E19_0" intLanes=":J14_0_0 :J14_1_0 :J14_2_0" shape="24.19,118.17 23.52,115.04 21.22,115.51 19.48,115.78 18.02,115.83 16.58,115.64 14.88,115.19 12.66,114.46 11.62,117.49 13.31,118.45 13.89,119.13 14.30,119.94 14.55,120.89 14.62,121.97 21.02,122.04 21.39,120.18 21.83,119.47 22.44,118.89 23.23,118.46">
        <request index="0" response="000" foes="000" cont="0"/>
        <request index="1" response="000" foes="100" cont="0"/>
        <request index="2" response="010" foes="010" cont="0"/>
    </junction>
    <junction id="J3" type="priority" x="-33.18" y="62.66" incLanes="E22_0 E15_0" intLanes=":J3_0_0 :J3_1_0 :J3_2_0" shape="-34.84,68.79 -31.75,67.95 -32.31,65.81 -32.63,64.16 -32.72,62.77 -32.54,61.39 -32.09,59.78 -31.35,57.69 -34.36,56.59 -35.30,58.18 -35.96,58.73 -36.73,59.12 -37.63,59.36 -38.66,59.44 -38.68,65.84 -36.90,66.17 -36.20,66.58 -35.62,67.15 -35.16,67.89">
        <request index="0" response="000" foes="000" cont="0"/>
        <request index="1" response="000" foes="100" cont="0"/>
        <request index="2" response="010" foes="010" cont="0"/>
    </junction>
    <junction id="J4" type="priority" x="26.71" y="9.08" incLanes="E16_0 E23_0" intLanes=":J4_0_0 :J4_1_0 :J4_2_0" shape="30.56,11.38 32.20,8.63 30.92,7.54 30.48,6.85 30.16,6.08 29.96,5.21 29.90,4.26 23.50,4.27 23.23,5.87 22.88,6.53 22.40,7.10 21.79,7.58 21.03,7.97 22.26,10.93 25.16,10.16 26.56,10.12 27.93,10.31 29.26,10.73">
        <request index="0" response="100" foes="100" cont="0"/>
        <request index="1" response="000" foes="000" cont="0"/>
        <request index="2" response="000" foes="001" cont="0"/>
    </junction>
    <junction id="J5" type="priority" x="26.65" y="-19.88" incLanes="-E16_0 E6_0 E6_1 E27_0" intLanes=":J5_0_0 :J5_1_0 :J5_2_0 :J5_3_0" shape="23.46,-13.65 29.86,-13.66 30.02,-14.27 30.21,-14.28 30.48,-14.09 30.83,-13.70 31.26,-13.11 33.91,-14.92 33.17,-16.26 33.05,-16.79 33.02,-17.36 33.04,-18.05 33.05,-18.94 20.24,-19.02 20.19,-17.94 20.09,-17.56 19.91,-17.22 19.63,-16.84 19.23,-16.38 21.61,-14.25 22.64,-15.10 23.00,-15.13 23.25,-14.90 23.41,-14.40">
        <request index="0" response="0000" foes="0000" cont="0"/>
        <request index="1" response="0000" foes="0000" cont="0"/>
        <request index="2" response="0000" foes="0000" cont="0"/>
        <request index="3" response="0000" foes="0000" cont="0"/>
    </junction>
    <junction id="J6" type="priority" x="78.40" y="68.96" incLanes="E17_0 E20_0" intLanes=":J6_0_0 :J6_1_0 :J6_2_0" shape="83.49,72.22 83.57,65.82 81.88,65.50 81.20,65.12 80.63,64.59 80.17,63.91 79.82,63.08 76.78,64.09 77.39,66.02 77.75,67.53 77.84,68.81 77.63,70.08 77.12,71.53 76.28,73.36 79.16,74.75 80.19,73.33 80.86,72.84 81.64,72.49 82.51,72.28">
        <request index="0" response="100" foes="100" cont="0"/>
        <request index="1" response="000" foes="000" cont="0"/>
        <request index="2" response="000" foes="001" cont="0"/>
    </junction>
    <junction id="J7" type="priority" x="17.46" y="157.50" incLanes="E25_0 -E19_0 -E8_0 -E8_1" intLanes=":J7_0_0 :J7_1_0 :J7_2_0 :J7_3_0" shape="24.78,153.19 22.23,151.25 21.39,152.10 21.09,152.17 20.88,151.99 20.76,151.57 20.73,150.91 14.33,150.85 14.18,151.45 13.99,151.45 13.74,151.24 13.41,150.84 13.02,150.23 10.29,151.90 10.96,153.24 11.07,153.77 11.10,154.32 11.08,154.98 11.06,155.85 23.86,155.88 23.91,154.80 24.00,154.43 24.16,154.07 24.41,153.68">
        <request index="0" response="0000" foes="0000" cont="0"/>
        <request index="1" response="0000" foes="0000" cont="0"/>
        <request index="2" response="0000" foes="0000" cont="0"/>
        <request index="3" response="0000" foes="0000" cont="0"/>
    </junction>
    <junction id="J9" type="dead_end" x="26.37" y="-241.78" incLanes="-E6_0 -E6_1" intLanes="" shape="26.37,-241.78 32.77,-241.79 19.97,-241.76"/>

    <connection from="-E15" to="E7" fromLane="0" toLane="1" via=":J1_1_0" dir="s" state="M"/>
    <connection from="-E16" to="-E6" fromLane="0" toLane="1" via=":J5_0_0" dir="s" state="M"/>
    <connection from="-E19" to="E8" fromLane="0" toLane="1" via=":J7_1_0" dir="s" state="M"/>
    <connection from="-E7" to="E27" fromLane="0" toLane="0" via=":J1_2_0" dir="R" state="M"/>
    <connection from="-E7" to="E15" fromLane="1" toLane="0" via=":J1_3_0" dir="s" state="M"/>
    <connection from="-E8" to="E26" fromLane="0" toLane="0" via=":J7_2_0" dir="R" state="M"/>
    <connection from="-E8" to="E19" fromLane="1" toLane="0" via=":J7_3_0" dir="s" state="M"/>
    <connection from="-E9" to="E25" fromLane="0" toLane="0" via=":J13_0_0" dir="R" state="M"/>
    <connection from="-E9" to="E17" fromLane="1" toLane="0" via=":J13_1_0" dir="s" state="M"/>
    <connection from="E15" to="E23" fromLane="0" toLane="0" via=":J3_2_0" dir="r" state="m" visibility="9.00"/>
    <connection from="E16" to="E20" fromLane="0" toLane="0" via=":J4_0_0" dir="r" state="m" visibility="9.00"/>
    <connection from="E17" to="E21" fromLane="0" toLane="0" via=":J6_0_0" dir="r" state="m" visibility="9.00"/>
    <connection from="E18" to="E9" fromLane="0" toLane="1" via=":J13_3_0" dir="s" state="M"/>
    <connection from="E19" to="E22" fromLane="0" toLane="0" via=":J14_2_0" dir="r" state="m" visibility="9.00"/>
    <connection from="E20" to="E18" fromLane="0" toLane="0" via=":J6_1_0" dir="r" state="M"/>
    <connection from="E20" to="E21" fromLane="0" toLane="0" via=":J6_2_0" dir="s" state="M"/>
    <connection from="E21" to="-E19" fromLane="0" toLane="0" via=":J14_0_0" dir="r" state="M"/>
    <connection from="E21" to="E22" fromLane="0" toLane="0" via=":J14_1_0" dir="s" state="M"/>
    <connection from="E22" to="-E15" fromLane="0" toLane="0" via=":J3_0_0" dir="r" state="M"/>
    <connection from="E22" to="E23" fromLane="0" toLane="0" via=":J3_1_0" dir="s" state="M"/>
    <connection from="E23" to="-E16" fromLane="0" toLane="0" via=":J4_1_0" dir="r" state="M"/>
    <connection from="E23" to="E20" fromLane="0" toLane="0" via=":J4_2_0" dir="s" state="M"/>
    <connection from="E24" to="E9" fromLane="0" toLane="0" via=":J13_2_0" dir="s" state="M"/>
    <connection from="E25" to="E8" fromLane="0" toLane="0" via=":J7_0_0" dir="s" state="M"/>
    <connection from="E26" to="E7" fromLane="0" toLane="0" via=":J1_0_0" dir="s" state="M"/>
    <connection from="E27" to="-E6" fromLane="0" toLane="0" via=":J5_3_0" dir="s" state="M"/>
    <connection from="E6" to="E24" fromLane="0" toLane="0" via=":J5_1_0" dir="R" state="M"/>
    <connection from="E6" to="E16" fromLane="1" toLane="0" via=":J5_2_0" dir="s" state="M"/>

    <connection from=":J1_0" to="E7" fromLane="0" toLane="0" dir="s" state="M"/>
    <connection from=":J1_1" to="E7" fromLane="0" toLane="1" dir="s" state="M"/>
    <connection from=":J1_2" to="E27" fromLane="0" toLane="0" dir="R" state="M"/>
    <connection from=":J1_3" to="E15" fromLane="0" toLane="0" dir="s" state="M"/>
    <connection from=":J13_0" to="E25" fromLane="0" toLane="0" dir="R" state="M"/>
    <connection from=":J13_1" to="E17" fromLane="0" toLane="0" dir="s" state="M"/>
    <connection from=":J13_2" to="E9" fromLane="0" toLane="0" dir="s" state="M"/>
    <connection from=":J13_3" to="E9" fromLane="0" toLane="1" dir="s" state="M"/>
    <connection from=":J14_0" to="-E19" fromLane="0" toLane="0" dir="r" state="M"/>
    <connection from=":J14_1" to="E22" fromLane="0" toLane="0" dir="s" state="M"/>
    <connection from=":J14_2" to="E22" fromLane="0" toLane="0" dir="r" state="M"/>
    <connection from=":J3_0" to="-E15" fromLane="0" toLane="0" dir="r" state="M"/>
    <connection from=":J3_1" to="E23" fromLane="0" toLane="0" dir="s" state="M"/>
    <connection from=":J3_2" to="E23" fromLane="0" toLane="0" dir="r" state="M"/>
    <connection from=":J4_0" to="E20" fromLane="0" toLane="0" dir="r" state="M"/>
    <connection from=":J4_1" to="-E16" fromLane="0" toLane="0" dir="r" state="M"/>
    <connection from=":J4_2" to="E20" fromLane="0" toLane="0" dir="s" state="M"/>
    <connection from=":J5_0" to="-E6" fromLane="0" toLane="1" dir="s" state="M"/>
    <connection from=":J5_1" to="E24" fromLane="0" toLane="0" dir="R" state="M"/>
    <connection from=":J5_2" to="E16" fromLane="0" toLane="0" dir="s" state="M"/>
    <connection from=":J5_3" to="-E6" fromLane="0" toLane="0" dir="s" state="M"/>
    <connection from=":J6_0" to="E21" fromLane="0" toLane="0" dir="r" state="M"/>
    <connection from=":J6_1" to="E18" fromLane="0" toLane="0" dir="r" state="M"/>
    <connection from=":J6_2" to="E21" fromLane="0" toLane="0" dir="s" state="M"/>
    <connection from=":J7_0" to="E8" fromLane="0" toLane="0" dir="s" state="M"/>
    <connection from=":J7_1" to="E8" fromLane="0" toLane="1" dir="s" state="M"/>
    <connection from=":J7_2" to="E26" fromLane="0" toLane="0" dir="R" state="M"/>
    <connection from=":J7_3" to="E19" fromLane="0" toLane="0" dir="s" state="M"/>

    <roundabout nodes="J14 J3 J4 J6" edges="E20 E21 E22 E23"/>

</net>
