<?xml version="1.0" encoding="UTF-8"?>

<!-- generated on 2023-04-28 12:25:49 by Eclipse SUMO netedit Version 1.17.0
<configuration xmlns:xsi="http://www.w3.org/2001/XMLSchema-instance" xsi:noNamespaceSchemaLocation="http://sumo.dlr.de/xsd/netconvertConfiguration.xsd">

    <input>
        <sumo-net-file value="C:\Users\Lenovo T470\Documents\skola\Bakalarka\hrajkanie sa\sumo\cloverleaf\cloverleaf.net.xml"/>
    </input>

    <output>
        <output-file value="C:\Users\Lenovo T470\Documents\skola\Bakalarka\hrajkanie sa\sumo\cloverleaf\cloverleaf.net.xml"/>
    </output>

    <processing>
        <geometry.min-radius.fix.railways value="false"/>
        <geometry.max-grade.fix value="false"/>
        <offset.disable-normalization value="true"/>
        <lefthand value="0"/>
    </processing>

    <junctions>
        <no-turnarounds value="true"/>
        <junctions.corner-detail value="5"/>
        <junctions.limit-turn-speed value="5.50"/>
        <rectangular-lane-cut value="0"/>
    </junctions>

    <pedestrian>
        <walkingareas value="0"/>
    </pedestrian>

</configuration>
-->

<net version="1.16" junctionCornerDetail="5" limitTurnSpeed="5.50" xmlns:xsi="http://www.w3.org/2001/XMLSchema-instance" xsi:noNamespaceSchemaLocation="http://sumo.dlr.de/xsd/net_file.xsd">

    <location netOffset="0.00,0.00" convBoundary="-315.87,-241.78,347.63,367.30" origBoundary="-10000000000.00,-10000000000.00,10000000000.00,10000000000.00" projParameter="!"/>

    <edge id=":J1_0" function="internal">
        <lane id=":J1_0_0" index="0" speed="13.89" length="15.43" shape="-153.38,74.09 -156.49,72.48 -159.47,70.98 -163.02,69.85 -167.86,69.35"/>
    </edge>
    <edge id=":J1_1" function="internal">
        <lane id=":J1_1_0" index="0" speed="13.89" length="17.36" shape="-150.48,69.38 -167.86,69.35"/>
        <lane id=":J1_1_1" index="1" speed="13.89" length="17.36" shape="-150.47,66.18 -167.81,66.15"/>
    </edge>
    <edge id=":J1_3" function="internal">
        <lane id=":J1_3_0" index="0" speed="13.89" length="17.20" shape="-167.70,59.75 -162.21,59.36 -158.06,58.22 -154.64,56.71 -151.32,55.20"/>
    </edge>
    <edge id=":J1_4" function="internal">
        <lane id=":J1_4_0" index="0" speed="13.89" length="17.28" shape="-167.70,59.75 -150.45,59.78"/>
        <lane id=":J1_4_1" index="1" speed="13.89" length="17.28" shape="-167.76,62.95 -150.46,62.98"/>
    </edge>
    <edge id=":J13_0" function="internal">
        <lane id=":J13_0_0" index="0" speed="13.89" length="16.52" shape="205.25,73.71 199.99,74.11 196.04,75.16 192.77,76.59 189.53,78.15"/>
    </edge>
    <edge id=":J13_1" function="internal">
        <lane id=":J13_1_0" index="0" speed="13.89" length="16.65" shape="205.25,73.71 188.56,73.37"/>
        <lane id=":J13_1_1" index="1" speed="13.89" length="16.65" shape="205.22,70.51 188.62,70.17"/>
    </edge>
    <edge id=":J13_3" function="internal">
        <lane id=":J13_3_0" index="0" speed="13.89" length="15.33" shape="191.00,58.98 194.01,60.79 196.90,62.46 200.38,63.68 205.15,64.12"/>
    </edge>
    <edge id=":J13_4" function="internal">
        <lane id=":J13_4_0" index="0" speed="13.89" length="16.46" shape="188.74,63.78 205.15,64.12"/>
        <lane id=":J13_4_1" index="1" speed="13.89" length="16.46" shape="188.68,66.97 205.18,67.32"/>
    </edge>
    <edge id=":J15_0" function="internal">
        <lane id=":J15_0_0" index="0" speed="7.40" length="5.48" shape="31.28,5.24 30.35,6.17 29.66,7.28 29.22,8.57 29.03,10.05"/>
    </edge>
    <edge id=":J15_1" function="internal">
        <lane id=":J15_1_0" index="0" speed="13.89" length="5.76" shape="25.92,4.16 25.83,9.91"/>
    </edge>
    <edge id=":J15_2" function="internal">
        <lane id=":J15_2_0" index="0" speed="6.89" length="5.14" shape="19.44,9.65 19.36,8.33 18.99,7.14 18.35,6.06 17.43,5.12"/>
    </edge>
    <edge id=":J15_3" function="internal">
        <lane id=":J15_3_0" index="0" speed="13.89" length="5.65" shape="22.64,9.78 22.72,4.13"/>
    </edge>
    <edge id=":J16_0" function="internal">
        <lane id=":J16_0_0" index="0" speed="8.70" length="4.03" shape="24.69,115.33 24.66,116.52 24.74,117.35 25.03,118.12 25.60,119.16"/>
    </edge>
    <edge id=":J16_1" function="internal">
        <lane id=":J16_1_0" index="0" speed="13.89" length="4.28" shape="21.49,115.20 21.44,119.49"/>
    </edge>
    <edge id=":J16_2" function="internal">
        <lane id=":J16_2_0" index="0" speed="8.41" length="3.89" shape="13.85,118.52 14.51,117.58 14.86,116.87 15.03,116.08 15.10,114.94"/>
    </edge>
    <edge id=":J16_3" function="internal">
        <lane id=":J16_3_0" index="0" speed="13.89" length="4.35" shape="18.24,119.42 18.29,115.07"/>
    </edge>
    <edge id=":J17_0" function="internal">
        <lane id=":J17_0_0" index="0" speed="9.63" length="7.81" shape="99.45,75.51 97.84,73.81 96.67,72.58 95.30,71.82 93.11,71.55"/>
    </edge>
    <edge id=":J17_1" function="internal">
        <lane id=":J17_1_0" index="0" speed="13.89" length="8.37" shape="101.47,71.71 93.11,71.55"/>
        <lane id=":J17_1_1" index="1" speed="13.89" length="8.37" shape="101.53,68.51 93.15,68.35"/>
    </edge>
    <edge id=":J17_3" function="internal">
        <lane id=":J17_3_0" index="0" speed="10.38" length="8.29" shape="93.23,61.95 95.59,61.75 97.11,61.07 98.46,59.91 100.30,58.25"/>
    </edge>
    <edge id=":J17_4" function="internal">
        <lane id=":J17_4_0" index="0" speed="13.89" length="8.41" shape="93.23,61.95 101.65,62.11"/>
        <lane id=":J17_4_1" index="1" speed="13.89" length="8.41" shape="93.19,65.15 101.59,65.31"/>
    </edge>
    <edge id=":J18_0" function="internal">
        <lane id=":J18_0_0" index="0" speed="7.63" length="7.62" shape="-48.40,69.78 -49.97,70.03 -51.47,70.84 -52.90,72.21 -54.26,74.12"/>
    </edge>
    <edge id=":J18_1" function="internal">
        <lane id=":J18_1_0" index="0" speed="13.89" length="8.34" shape="-48.40,69.78 -56.72,69.73"/>
        <lane id=":J18_1_1" index="1" speed="13.89" length="8.34" shape="-48.36,66.58 -56.71,66.53"/>
    </edge>
    <edge id=":J18_3" function="internal">
        <lane id=":J18_3_0" index="0" speed="7.67" length="7.62" shape="-54.08,55.75 -52.76,57.67 -51.35,59.05 -49.86,59.89 -48.28,60.18"/>
    </edge>
    <edge id=":J18_4" function="internal">
        <lane id=":J18_4_0" index="0" speed="13.89" length="8.39" shape="-56.69,60.13 -48.28,60.18"/>
        <lane id=":J18_4_1" index="1" speed="13.89" length="8.39" shape="-56.70,63.33 -48.32,63.38"/>
    </edge>
    <edge id=":J5_0" function="internal">
        <lane id=":J5_0_0" index="0" speed="9.12" length="4.33" shape="29.90,-90.28 29.90,-89.00 29.98,-88.11 30.29,-87.28 30.92,-86.17"/>
    </edge>
    <edge id=":J5_1" function="internal">
        <lane id=":J5_1_0" index="0" speed="13.89" length="4.46" shape="26.70,-90.37 26.67,-85.90"/>
    </edge>
    <edge id=":J5_2" function="internal">
        <lane id=":J5_2_0" index="0" speed="8.14" length="3.93" shape="19.02,-86.92 19.69,-87.87 20.05,-88.59 20.21,-89.38 20.27,-90.54"/>
    </edge>
    <edge id=":J5_3" function="internal">
        <lane id=":J5_3_0" index="0" speed="13.89" length="4.52" shape="23.47,-85.93 23.47,-90.45"/>
    </edge>
    <edge id=":J7_0" function="internal">
        <lane id=":J7_0_0" index="0" speed="8.47" length="4.57" shape="23.55,221.31 22.80,222.41 22.43,223.27 22.32,224.22 22.30,225.57"/>
    </edge>
    <edge id=":J7_1" function="internal">
        <lane id=":J7_1_0" index="0" speed="13.89" length="4.81" shape="19.23,220.75 19.10,225.56"/>
    </edge>
    <edge id=":J7_2" function="internal">
        <lane id=":J7_2_0" index="0" speed="7.18" length="4.08" shape="12.78,225.54 12.83,224.34 12.71,223.51 12.33,222.75 11.62,221.79"/>
    </edge>
    <edge id=":J7_3" function="internal">
        <lane id=":J7_3_0" index="0" speed="13.89" length="4.87" shape="15.99,225.55 16.03,220.68"/>
    </edge>

    <edge id="-E28" from="J15" to="J5" priority="-1">
        <lane id="-E28_0" index="0" speed="13.89" length="90.06" shape="22.72,4.13 23.47,-85.93"/>
    </edge>
    <edge id="-E29" from="J16" to="J15" priority="-1">
        <lane id="-E29_0" index="0" speed="13.89" length="105.38" shape="15.10,114.94 19.44,9.65"/>
        <lane id="-E29_1" index="1" speed="13.89" length="105.38" shape="18.29,115.07 22.64,9.78"/>
    </edge>
    <edge id="-E30" from="J7" to="J16" priority="-1">
        <lane id="-E30_0" index="0" speed="13.89" length="101.29" shape="16.03,220.68 18.24,119.42"/>
    </edge>
    <edge id="-E31" from="J17" to="J13" priority="-1">
        <lane id="-E31_0" index="0" speed="13.89" length="87.11" shape="101.65,62.11 188.74,63.78"/>
        <lane id="-E31_1" index="1" speed="13.89" length="87.11" shape="101.59,65.31 188.68,66.97"/>
    </edge>
    <edge id="-E32" from="J18" to="J17" priority="-1">
        <lane id="-E32_0" index="0" speed="13.89" length="141.52" shape="-48.28,60.18 93.23,61.95"/>
        <lane id="-E32_1" index="1" speed="13.89" length="141.52" shape="-48.32,63.38 93.19,65.15"/>
    </edge>
    <edge id="-E33" from="J1" to="J18" priority="-1">
        <lane id="-E33_0" index="0" speed="13.89" length="93.76" shape="-150.45,59.78 -56.69,60.13"/>
        <lane id="-E33_1" index="1" speed="13.89" length="93.76" shape="-150.46,62.98 -56.70,63.33"/>
    </edge>
    <edge id="-E6" from="J5" to="J9" priority="-1" shape="25.12,-92.47 26.18,-132.65 26.37,-241.78">
        <lane id="-E6_0" index="0" speed="13.89" length="151.31" shape="20.27,-90.54 21.38,-132.72 21.57,-241.79"/>
        <lane id="-E6_1" index="1" speed="13.89" length="151.31" shape="23.47,-90.45 24.58,-132.67 24.77,-241.78"/>
    </edge>
    <edge id="-E7" from="J10" to="J1" priority="-1">
        <lane id="-E7_0" index="0" speed="13.89" length="148.11" shape="-315.79,57.34 -167.70,59.75"/>
        <lane id="-E7_1" index="1" speed="13.89" length="148.11" shape="-315.84,60.54 -167.76,62.95"/>
    </edge>
    <edge id="-E8" from="J11" to="J7" priority="-1" shape="16.98,367.30 17.30,229.30 17.50,226.77">
        <lane id="-E8_0" index="0" speed="13.89" length="141.76" shape="12.18,367.29 12.50,229.11 12.78,225.54"/>
        <lane id="-E8_1" index="1" speed="13.89" length="141.76" shape="15.38,367.30 15.70,229.24 15.99,225.55"/>
    </edge>
    <edge id="-E9" from="J12" to="J13" priority="-1">
        <lane id="-E9_0" index="0" speed="13.89" length="142.39" shape="347.63,73.73 205.25,73.71"/>
        <lane id="-E9_1" index="1" speed="13.89" length="142.39" shape="347.63,70.53 205.22,70.51"/>
    </edge>
    <edge id="E28" from="J5" to="J15" priority="-1">
        <lane id="E28_0" index="0" speed="13.89" length="90.06" shape="26.67,-85.90 25.92,4.16"/>
    </edge>
    <edge id="E29" from="J15" to="J16" priority="-1">
        <lane id="E29_0" index="0" speed="13.89" length="105.38" shape="29.03,10.05 24.69,115.33"/>
        <lane id="E29_1" index="1" speed="13.89" length="105.38" shape="25.83,9.91 21.49,115.20"/>
    </edge>
    <edge id="E30" from="J16" to="J7" priority="-1">
        <lane id="E30_0" index="0" speed="13.89" length="101.29" shape="21.44,119.49 19.23,220.75"/>
    </edge>
    <edge id="E31" from="J13" to="J17" priority="-1">
        <lane id="E31_0" index="0" speed="13.89" length="87.11" shape="188.56,73.37 101.47,71.71"/>
        <lane id="E31_1" index="1" speed="13.89" length="87.11" shape="188.62,70.17 101.53,68.51"/>
    </edge>
    <edge id="E32" from="J17" to="J18" priority="-1">
        <lane id="E32_0" index="0" speed="13.89" length="141.52" shape="93.11,71.55 -48.40,69.78"/>
        <lane id="E32_1" index="1" speed="13.89" length="141.52" shape="93.15,68.35 -48.36,66.58"/>
    </edge>
    <edge id="E33" from="J18" to="J1" priority="-1">
        <lane id="E33_0" index="0" speed="13.89" length="93.76" shape="-56.72,69.73 -150.48,69.38"/>
        <lane id="E33_1" index="1" speed="13.89" length="93.76" shape="-56.71,66.53 -150.47,66.18"/>
    </edge>
    <edge id="E34" from="J5" to="J13" priority="-1" shape="25.12,-92.47 55.75,-43.20 104.49,5.89 153.00,40.54 206.23,68.91">
        <lane id="E34_0" index="0" speed="13.89" length="219.76" shape="30.92,-86.17 57.01,-44.20 105.53,4.67 153.84,39.18 191.00,58.98"/>
    </edge>
    <edge id="E35" from="J13" to="J7" priority="-1" shape="206.23,68.91 148.70,94.69 95.14,136.33 54.08,177.53 17.50,226.77">
        <lane id="E35_0" index="0" speed="13.89" length="222.57" shape="189.53,78.15 149.53,96.07 96.20,137.53 55.30,178.58 23.55,221.31"/>
    </edge>
    <edge id="E36" from="J7" to="J1" priority="-1" shape="17.50,226.77 -24.17,172.94 -55.84,131.16 -99.50,97.09 -170.38,64.51">
        <lane id="E36_0" index="0" speed="13.89" length="226.13" shape="11.62,221.79 -25.44,173.91 -56.99,132.29 -100.34,98.47 -153.38,74.09"/>
    </edge>
    <edge id="E37" from="J1" to="J5" priority="-1" shape="-170.38,64.51 -105.84,38.83 -60.40,5.17 -11.84,-42.54 25.12,-92.47">
        <lane id="E37_0" index="0" speed="13.89" length="226.08" shape="-151.32,55.20 -106.63,37.42 -61.44,3.95 -13.05,-43.59 19.02,-86.92"/>
    </edge>
    <edge id="E38" from="J17" to="J15" priority="-1" shape="92.55,66.74 110.77,51.67 113.83,27.57 96.45,3.08 76.36,-7.90 47.13,-9.34 24.28,8.74">
        <lane id="E38_0" index="0" speed="13.89" length="135.03" shape="100.30,58.25 109.26,50.84 112.16,27.99 95.36,4.31 75.91,-6.32 47.65,-7.71 31.28,5.24"/>
    </edge>
    <edge id="E39" from="J15" to="J18" priority="-1" shape="24.28,8.74 4.23,-7.95 -22.01,-12.25 -46.17,-1.31 -58.08,16.90 -62.04,45.25 -50.58,64.95">
        <lane id="E39_0" index="0" speed="13.89" length="130.49" shape="17.43,5.12 3.54,-6.44 -21.79,-10.59 -45.09,-0.04 -56.54,17.48 -60.38,44.92 -54.08,55.75"/>
    </edge>
    <edge id="E40" from="J18" to="J16" priority="-1" shape="-50.58,64.95 -62.65,84.91 -61.79,112.00 -47.96,133.62 -18.32,143.02 5.62,132.64 19.99,112.77">
        <lane id="E40_0" index="0" speed="13.89" length="134.73" shape="-54.26,74.12 -61.04,85.33 -60.20,111.51 -46.92,132.27 -18.41,141.31 4.58,131.35 13.85,118.52"/>
    </edge>
    <edge id="E41" from="J16" to="J17" priority="-1" shape="19.99,112.77 31.50,132.36 58.16,143.53 89.44,131.58 110.20,110.06 111.35,84.63 92.55,66.74">
        <lane id="E41_0" index="0" speed="13.89" length="141.30" shape="25.60,119.16 32.61,131.09 58.19,141.81 88.54,130.21 108.63,109.38 109.72,85.29 99.45,75.51"/>
    </edge>
    <edge id="E6" from="J9" to="J5" priority="-1">
        <lane id="E6_0" index="0" speed="13.89" length="151.43" shape="31.17,-241.74 29.90,-90.28"/>
        <lane id="E6_1" index="1" speed="13.89" length="151.43" shape="27.97,-241.77 26.70,-90.37"/>
    </edge>
    <edge id="E7" from="J1" to="J10" priority="-1">
        <lane id="E7_0" index="0" speed="13.89" length="148.11" shape="-167.86,69.35 -315.95,66.94"/>
        <lane id="E7_1" index="1" speed="13.89" length="148.11" shape="-167.81,66.15 -315.90,63.74"/>
    </edge>
    <edge id="E8" from="J7" to="J11" priority="-1">
        <lane id="E8_0" index="0" speed="13.89" length="141.75" shape="22.30,225.57 21.78,367.32"/>
        <lane id="E8_1" index="1" speed="13.89" length="141.75" shape="19.10,225.56 18.58,367.31"/>
    </edge>
    <edge id="E9" from="J13" to="J12" priority="-1" shape="206.23,68.91 228.99,68.66 347.63,68.93">
        <lane id="E9_0" index="0" speed="13.89" length="142.47" shape="205.15,64.12 228.97,63.86 347.64,64.13"/>
        <lane id="E9_1" index="1" speed="13.89" length="142.47" shape="205.18,67.32 228.98,67.06 347.63,67.33"/>
    </edge>

    <junction id="J1" type="priority" x="-170.38" y="64.51" incLanes="E36_0 E33_0 E33_1 -E7_0 -E7_1" intLanes=":J1_0_0 :J1_1_0 :J1_1_1 :J1_3_0 :J1_4_0 :J1_4_1" shape="-154.05,75.54 -152.71,72.63 -150.49,70.98 -150.44,58.18 -150.73,56.69 -151.91,53.72 -155.15,55.11 -157.56,56.24 -159.58,57.12 -161.64,57.74 -164.19,58.08 -167.68,58.15 -167.89,70.95 -164.79,71.12 -162.53,71.52 -160.72,72.15 -158.96,73.02 -156.87,74.15">
        <request index="0" response="000110" foes="000110" cont="0"/>
        <request index="1" response="000000" foes="000001" cont="0"/>
        <request index="2" response="000000" foes="000001" cont="0"/>
        <request index="3" response="000000" foes="000000" cont="0"/>
        <request index="4" response="000000" foes="000000" cont="0"/>
        <request index="5" response="000000" foes="000000" cont="0"/>
    </junction>
    <junction id="J10" type="dead_end" x="-315.87" y="62.14" incLanes="E7_0 E7_1" intLanes="" shape="-315.87,62.14 -315.97,68.54 -315.87,62.14"/>
    <junction id="J11" type="dead_end" x="16.98" y="367.30" incLanes="E8_0 E8_1" intLanes="" shape="16.98,367.30 10.58,367.29 23.38,367.32"/>
    <junction id="J12" type="dead_end" x="347.63" y="68.93" incLanes="E9_0 E9_1" intLanes="" shape="347.63,68.93 347.63,75.33 347.64,62.53"/>
    <junction id="J13" type="priority" x="206.23" y="68.91" incLanes="-E9_0 -E9_1 E34_0 -E31_0 -E31_1" intLanes=":J13_0_0 :J13_1_0 :J13_1_1 :J13_3_0 :J13_4_0 :J13_4_1" shape="205.27,75.31 205.13,62.52 202.10,62.41 199.89,62.02 198.12,61.33 196.43,60.36 194.43,59.10 191.75,57.57 190.24,60.39 188.77,62.18 188.53,74.97 188.88,76.69 190.19,79.61 193.24,78.17 195.54,77.07 197.47,76.25 199.46,75.71 201.93,75.41">
        <request index="0" response="000000" foes="000000" cont="0"/>
        <request index="1" response="000000" foes="000000" cont="0"/>
        <request index="2" response="000000" foes="000000" cont="0"/>
        <request index="3" response="110000" foes="110000" cont="0"/>
        <request index="4" response="000000" foes="001000" cont="0"/>
        <request index="5" response="000000" foes="001000" cont="0"/>
    </junction>
    <junction id="J15" type="priority" x="24.28" y="8.74" incLanes="E38_0 E28_0 -E29_0 -E29_1" intLanes=":J15_0_0 :J15_1_0 :J15_2_0 :J15_3_0" shape="32.28,6.49 30.29,3.98 28.74,4.99 28.20,5.13 27.82,5.05 27.59,4.73 27.52,4.17 21.12,4.12 20.81,4.97 20.44,5.05 19.92,4.89 19.26,4.51 18.45,3.89 16.40,6.35 17.24,7.27 17.52,7.79 17.72,8.35 17.82,8.95 17.84,9.59 30.63,10.11 30.86,8.65 31.09,8.01 31.41,7.44 31.80,6.93">
        <request index="0" response="0000" foes="0000" cont="0"/>
        <request index="1" response="0000" foes="0000" cont="0"/>
        <request index="2" response="0000" foes="0000" cont="0"/>
        <request index="3" response="0000" foes="0000" cont="0"/>
    </junction>
    <junction id="J16" type="priority" x="19.99" y="112.77" incLanes="E29_0 E29_1 E40_0 -E30_0" intLanes=":J16_0_0 :J16_1_0 :J16_2_0 :J16_3_0" shape="24.22,119.97 26.98,118.35 26.44,117.34 26.32,116.95 26.27,116.55 26.26,116.05 26.29,115.40 13.50,114.87 13.41,115.96 13.32,116.33 13.16,116.69 12.91,117.08 12.56,117.59 15.15,119.46 16.00,118.51 16.29,118.38 16.50,118.48 16.62,118.82 16.64,119.38 23.04,119.52 23.19,118.91 23.35,118.88 23.58,119.05 23.87,119.42">
        <request index="0" response="0000" foes="0000" cont="0"/>
        <request index="1" response="0000" foes="0000" cont="0"/>
        <request index="2" response="0000" foes="0000" cont="0"/>
        <request index="3" response="0000" foes="0000" cont="0"/>
    </junction>
    <junction id="J17" type="priority" x="92.55" y="66.74" incLanes="E41_0 E31_0 E31_1 -E32_0 -E32_1" intLanes=":J17_0_0 :J17_1_0 :J17_1_1 :J17_3_0 :J17_4_0 :J17_4_1" shape="98.35,76.67 100.55,74.35 100.15,73.76 100.21,73.55 100.44,73.41 100.85,73.33 101.44,73.31 101.68,60.51 100.95,60.39 100.81,60.24 100.83,60.04 101.00,59.79 101.32,59.48 99.28,57.02 97.31,58.87 96.56,59.52 95.76,59.99 94.71,60.27 93.25,60.35 93.09,73.15 95.35,73.59 96.05,74.11 96.67,74.80 97.38,75.66">
        <request index="0" response="000110" foes="000110" cont="0"/>
        <request index="1" response="000000" foes="000001" cont="0"/>
        <request index="2" response="000000" foes="000001" cont="0"/>
        <request index="3" response="000000" foes="000000" cont="0"/>
        <request index="4" response="000000" foes="000000" cont="0"/>
        <request index="5" response="000000" foes="000000" cont="0"/>
    </junction>
    <junction id="J18" type="priority" x="-50.58" y="64.95" incLanes="E32_0 E32_1 E39_0 -E33_0 -E33_1" intLanes=":J18_0_0 :J18_1_0 :J18_1_1 :J18_3_0 :J18_4_0 :J18_4_1" shape="-48.42,71.38 -48.26,58.58 -49.79,58.16 -50.54,57.66 -51.27,56.95 -51.99,56.05 -52.70,54.95 -55.46,56.56 -55.09,57.66 -55.19,58.04 -55.49,58.31 -55.99,58.48 -56.68,58.53 -56.73,71.33 -55.59,71.55 -55.31,71.82 -55.22,72.21 -55.33,72.70 -55.63,73.29 -52.89,74.95 -51.42,72.95 -50.68,72.26 -49.93,71.76 -49.18,71.47">
        <request index="0" response="000000" foes="000000" cont="0"/>
        <request index="1" response="000000" foes="000000" cont="0"/>
        <request index="2" response="000000" foes="000000" cont="0"/>
        <request index="3" response="110000" foes="110000" cont="0"/>
        <request index="4" response="000000" foes="001000" cont="0"/>
        <request index="5" response="000000" foes="001000" cont="0"/>
    </junction>
    <junction id="J5" type="priority" x="25.12" y="-92.47" incLanes="E6_0 E6_1 E37_0 -E28_0" intLanes=":J5_0_0 :J5_1_0 :J5_2_0 :J5_3_0" shape="29.56,-85.33 32.28,-87.02 31.68,-88.11 31.56,-88.54 31.50,-88.98 31.49,-89.52 31.50,-90.24 18.67,-90.58 18.60,-89.50 18.51,-89.12 18.35,-88.77 18.10,-88.37 17.74,-87.87 20.31,-85.97 21.18,-86.91 21.49,-87.03 21.70,-86.90 21.83,-86.54 21.87,-85.94 28.27,-85.89 28.41,-86.49 28.60,-86.50 28.85,-86.31 29.17,-85.92">
        <request index="0" response="0000" foes="0000" cont="0"/>
        <request index="1" response="0000" foes="0000" cont="0"/>
        <request index="2" response="0000" foes="0000" cont="0"/>
        <request index="3" response="0000" foes="0000" cont="0"/>
    </junction>
    <junction id="J7" type="priority" x="17.50" y="226.77" incLanes="E35_0 E30_0 -E8_0 -E8_1" intLanes=":J7_0_0 :J7_1_0 :J7_2_0 :J7_3_0" shape="24.83,222.26 22.27,220.36 21.45,221.28 21.17,221.45 20.98,221.42 20.86,221.20 20.83,220.79 14.43,220.65 14.24,221.60 14.02,221.74 13.72,221.65 13.34,221.34 12.88,220.81 10.35,222.77 10.98,223.67 11.14,224.04 11.21,224.43 11.22,224.90 11.18,225.53 23.90,225.57 23.92,224.26 23.99,223.79 24.14,223.35 24.41,222.87">
        <request index="0" response="0000" foes="0000" cont="0"/>
        <request index="1" response="0000" foes="0000" cont="0"/>
        <request index="2" response="0000" foes="0000" cont="0"/>
        <request index="3" response="0000" foes="0000" cont="0"/>
    </junction>
    <junction id="J9" type="dead_end" x="26.37" y="-241.78" incLanes="-E6_0 -E6_1" intLanes="" shape="26.37,-241.78 32.77,-241.73 19.97,-241.79"/>

    <connection from="-E28" to="-E6" fromLane="0" toLane="1" via=":J5_3_0" dir="s" state="M"/>
    <connection from="-E29" to="E39" fromLane="0" toLane="0" via=":J15_2_0" dir="r" state="M"/>
    <connection from="-E29" to="-E28" fromLane="1" toLane="0" via=":J15_3_0" dir="s" state="M"/>
    <connection from="-E30" to="-E29" fromLane="0" toLane="1" via=":J16_3_0" dir="s" state="M"/>
    <connection from="-E31" to="E9" fromLane="0" toLane="0" via=":J13_4_0" dir="s" state="M"/>
    <connection from="-E31" to="E9" fromLane="1" toLane="1" via=":J13_4_1" dir="s" state="M"/>
    <connection from="-E32" to="E38" fromLane="0" toLane="0" via=":J17_3_0" dir="R" state="M"/>
    <connection from="-E32" to="-E31" fromLane="0" toLane="0" via=":J17_4_0" dir="s" state="M"/>
    <connection from="-E32" to="-E31" fromLane="1" toLane="1" via=":J17_4_1" dir="s" state="M"/>
    <connection from="-E33" to="-E32" fromLane="0" toLane="0" via=":J18_4_0" dir="s" state="M"/>
    <connection from="-E33" to="-E32" fromLane="1" toLane="1" via=":J18_4_1" dir="s" state="M"/>
    <connection from="-E7" to="E37" fromLane="0" toLane="0" via=":J1_3_0" dir="R" state="M"/>
    <connection from="-E7" to="-E33" fromLane="0" toLane="0" via=":J1_4_0" dir="s" state="M"/>
    <connection from="-E7" to="-E33" fromLane="1" toLane="1" via=":J1_4_1" dir="s" state="M"/>
    <connection from="-E8" to="E36" fromLane="0" toLane="0" via=":J7_2_0" dir="R" state="M"/>
    <connection from="-E8" to="-E30" fromLane="1" toLane="0" via=":J7_3_0" dir="s" state="M"/>
    <connection from="-E9" to="E35" fromLane="0" toLane="0" via=":J13_0_0" dir="R" state="M"/>
    <connection from="-E9" to="E31" fromLane="0" toLane="0" via=":J13_1_0" dir="s" state="M"/>
    <connection from="-E9" to="E31" fromLane="1" toLane="1" via=":J13_1_1" dir="s" state="M"/>
    <connection from="E28" to="E29" fromLane="0" toLane="1" via=":J15_1_0" dir="s" state="M"/>
    <connection from="E29" to="E41" fromLane="0" toLane="0" via=":J16_0_0" dir="R" state="M"/>
    <connection from="E29" to="E30" fromLane="1" toLane="0" via=":J16_1_0" dir="s" state="M"/>
    <connection from="E30" to="E8" fromLane="0" toLane="1" via=":J7_1_0" dir="s" state="M"/>
    <connection from="E31" to="E32" fromLane="0" toLane="0" via=":J17_1_0" dir="s" state="M"/>
    <connection from="E31" to="E32" fromLane="1" toLane="1" via=":J17_1_1" dir="s" state="M"/>
    <connection from="E32" to="E40" fromLane="0" toLane="0" via=":J18_0_0" dir="r" state="M"/>
    <connection from="E32" to="E33" fromLane="0" toLane="0" via=":J18_1_0" dir="s" state="M"/>
    <connection from="E32" to="E33" fromLane="1" toLane="1" via=":J18_1_1" dir="s" state="M"/>
    <connection from="E33" to="E7" fromLane="0" toLane="0" via=":J1_1_0" dir="s" state="M"/>
    <connection from="E33" to="E7" fromLane="1" toLane="1" via=":J1_1_1" dir="s" state="M"/>
    <connection from="E34" to="E9" fromLane="0" toLane="0" via=":J13_3_0" dir="s" state="m"/>
    <connection from="E35" to="E8" fromLane="0" toLane="0" via=":J7_0_0" dir="s" state="M"/>
    <connection from="E36" to="E7" fromLane="0" toLane="0" via=":J1_0_0" dir="s" state="m"/>
    <connection from="E37" to="-E6" fromLane="0" toLane="0" via=":J5_2_0" dir="s" state="M"/>
    <connection from="E38" to="E29" fromLane="0" toLane="0" via=":J15_0_0" dir="r" state="M"/>
    <connection from="E39" to="-E32" fromLane="0" toLane="0" via=":J18_3_0" dir="r" state="m"/>
    <connection from="E40" to="-E29" fromLane="0" toLane="0" via=":J16_2_0" dir="s" state="M"/>
    <connection from="E41" to="E32" fromLane="0" toLane="0" via=":J17_0_0" dir="s" state="m"/>
    <connection from="E6" to="E34" fromLane="0" toLane="0" via=":J5_0_0" dir="R" state="M"/>
    <connection from="E6" to="E28" fromLane="1" toLane="0" via=":J5_1_0" dir="s" state="M"/>

    <connection from=":J1_0" to="E7" fromLane="0" toLane="0" dir="s" state="M"/>
    <connection from=":J1_1" to="E7" fromLane="0" toLane="0" dir="s" state="M"/>
    <connection from=":J1_1" to="E7" fromLane="1" toLane="1" dir="s" state="M"/>
    <connection from=":J1_3" to="E37" fromLane="0" toLane="0" dir="R" state="M"/>
    <connection from=":J1_4" to="-E33" fromLane="0" toLane="0" dir="s" state="M"/>
    <connection from=":J1_4" to="-E33" fromLane="1" toLane="1" dir="s" state="M"/>
    <connection from=":J13_0" to="E35" fromLane="0" toLane="0" dir="R" state="M"/>
    <connection from=":J13_1" to="E31" fromLane="0" toLane="0" dir="s" state="M"/>
    <connection from=":J13_1" to="E31" fromLane="1" toLane="1" dir="s" state="M"/>
    <connection from=":J13_3" to="E9" fromLane="0" toLane="0" dir="s" state="M"/>
    <connection from=":J13_4" to="E9" fromLane="0" toLane="0" dir="s" state="M"/>
    <connection from=":J13_4" to="E9" fromLane="1" toLane="1" dir="s" state="M"/>
    <connection from=":J15_0" to="E29" fromLane="0" toLane="0" dir="r" state="M"/>
    <connection from=":J15_1" to="E29" fromLane="0" toLane="1" dir="s" state="M"/>
    <connection from=":J15_2" to="E39" fromLane="0" toLane="0" dir="r" state="M"/>
    <connection from=":J15_3" to="-E28" fromLane="0" toLane="0" dir="s" state="M"/>
    <connection from=":J16_0" to="E41" fromLane="0" toLane="0" dir="R" state="M"/>
    <connection from=":J16_1" to="E30" fromLane="0" toLane="0" dir="s" state="M"/>
    <connection from=":J16_2" to="-E29" fromLane="0" toLane="0" dir="s" state="M"/>
    <connection from=":J16_3" to="-E29" fromLane="0" toLane="1" dir="s" state="M"/>
    <connection from=":J17_0" to="E32" fromLane="0" toLane="0" dir="s" state="M"/>
    <connection from=":J17_1" to="E32" fromLane="0" toLane="0" dir="s" state="M"/>
    <connection from=":J17_1" to="E32" fromLane="1" toLane="1" dir="s" state="M"/>
    <connection from=":J17_3" to="E38" fromLane="0" toLane="0" dir="R" state="M"/>
    <connection from=":J17_4" to="-E31" fromLane="0" toLane="0" dir="s" state="M"/>
    <connection from=":J17_4" to="-E31" fromLane="1" toLane="1" dir="s" state="M"/>
    <connection from=":J18_0" to="E40" fromLane="0" toLane="0" dir="r" state="M"/>
    <connection from=":J18_1" to="E33" fromLane="0" toLane="0" dir="s" state="M"/>
    <connection from=":J18_1" to="E33" fromLane="1" toLane="1" dir="s" state="M"/>
    <connection from=":J18_3" to="-E32" fromLane="0" toLane="0" dir="r" state="M"/>
    <connection from=":J18_4" to="-E32" fromLane="0" toLane="0" dir="s" state="M"/>
    <connection from=":J18_4" to="-E32" fromLane="1" toLane="1" dir="s" state="M"/>
    <connection from=":J5_0" to="E34" fromLane="0" toLane="0" dir="R" state="M"/>
    <connection from=":J5_1" to="E28" fromLane="0" toLane="0" dir="s" state="M"/>
    <connection from=":J5_2" to="-E6" fromLane="0" toLane="0" dir="s" state="M"/>
    <connection from=":J5_3" to="-E6" fromLane="0" toLane="1" dir="s" state="M"/>
    <connection from=":J7_0" to="E8" fromLane="0" toLane="0" dir="s" state="M"/>
    <connection from=":J7_1" to="E8" fromLane="0" toLane="1" dir="s" state="M"/>
    <connection from=":J7_2" to="E36" fromLane="0" toLane="0" dir="R" state="M"/>
    <connection from=":J7_3" to="-E30" fromLane="0" toLane="0" dir="s" state="M"/>

</net>
