<?xml version="1.0" encoding="UTF-8"?>

<!-- generated on 2022-06-02 10:37:42 by Eclipse SUMO duarouter Version 1.13.0
<configuration xmlns:xsi="http://www.w3.org/2001/XMLSchema-instance" xsi:noNamespaceSchemaLocation="http://sumo.dlr.de/xsd/duarouterConfiguration.xsd">

    <input>
        <net-file value="C:\Users\Lenovo%20T470\Sumo\2022-06-02-10-37-30\osm.net.xml"/>
        <route-files value="C:\Users\Lenovo%20T470\Sumo\2022-06-02-10-37-30\osm.passenger.trips.xml"/>
    </input>

    <output>
        <output-file value="C:\Users\Lenovo%20T470\Sumo\2022-06-02-10-37-30\osm.passenger.trips.xml.tmp"/>
        <write-trips value="true"/>
    </output>

    <time>
        <begin value="0"/>
        <end value="3600"/>
    </time>

    <report>
        <no-warnings value="true"/>
        <ignore-errors value="true"/>
        <no-step-log value="true"/>
    </report>

</configuration>
-->

<routes xmlns:xsi="http://www.w3.org/2001/XMLSchema-instance" xsi:noNamespaceSchemaLocation="http://sumo.dlr.de/xsd/routes_file.xsd">
    <vType id="veh_passenger" vClass="passenger"/>
    <trip id="veh0" type="veh_passenger" depart="0.00" departLane="best" from="386521565#3" to="-221161287#2"/>
    <trip id="veh2" type="veh_passenger" depart="8.74" departLane="best" from="4351498#5" to="4351492#1"/>
    <trip id="veh3" type="veh_passenger" depart="13.11" departLane="best" from="627396941#0" to="-37071741#7"/>
    <trip id="veh4" type="veh_passenger" depart="17.49" departLane="best" departSpeed="max" from="-7715986#1" to="-22885305#0"/>
    <trip id="veh5" type="veh_passenger" depart="21.86" departLane="best" from="-4350519#1" to="338944340#1"/>
    <trip id="veh7" type="veh_passenger" depart="30.60" departLane="best" from="386521579#6" to="380486231#1"/>
    <trip id="veh8" type="veh_passenger" depart="34.97" departLane="best" from="-4351496#0" to="4304621#3"/>
    <trip id="veh9" type="veh_passenger" depart="39.34" departLane="best" from="4426429#2" to="-1021723764"/>
    <trip id="veh10" type="veh_passenger" depart="43.72" departLane="best" departSpeed="max" from="-557437954#1" to="-4339278#1"/>
    <trip id="veh12" type="veh_passenger" depart="52.46" departLane="best" from="-37071741#2" to="-386521558#2"/>
    <trip id="veh13" type="veh_passenger" depart="56.83" departLane="best" from="4413310#3" to="4412573#1"/>
    <trip id="veh14" type="veh_passenger" depart="61.20" departLane="best" from="23066901#3" to="890089289#0"/>
    <trip id="veh16" type="veh_passenger" depart="69.95" departLane="best" from="4843905#2" to="4338398#4"/>
    <trip id="veh18" type="veh_passenger" depart="78.69" departLane="best" from="4340802#3" to="-23066907#0"/>
    <trip id="veh20" type="veh_passenger" depart="87.43" departLane="best" from="-380486113#0" to="-560277091#0"/>
    <trip id="veh21" type="veh_passenger" depart="91.80" departLane="best" from="386521564#3" to="-8162716#4"/>
    <trip id="veh22" type="veh_passenger" depart="96.18" departLane="best" departSpeed="max" from="-629591239#2" to="-4409147#3"/>
    <trip id="veh23" type="veh_passenger" depart="100.55" departLane="best" from="-4412577#3" to="7715042#1"/>
    <trip id="veh24" type="veh_passenger" depart="104.92" departLane="best" from="386521579#4" to="4338395#1"/>
    <trip id="veh25" type="veh_passenger" depart="109.29" departLane="best" from="-4338400#1" to="4412573#0"/>
    <trip id="veh26" type="veh_passenger" depart="113.66" departLane="best" from="-4338393#9" to="-975109237#1"/>
    <trip id="veh27" type="veh_passenger" depart="118.03" departLane="best" from="975109237#2" to="4339278#0"/>
    <trip id="veh28" type="veh_passenger" depart="122.41" departLane="best" from="236406587#6" to="4351498#7"/>
    <trip id="veh29" type="veh_passenger" depart="126.78" departLane="best" from="515013187" to="4571486"/>
    <trip id="veh30" type="veh_passenger" depart="131.15" departLane="best" from="-4351499#2" to="-22885305#2"/>
    <trip id="veh32" type="veh_passenger" depart="139.89" departLane="best" departSpeed="max" from="560277091#0" to="-74870424#0"/>
    <trip id="veh33" type="veh_passenger" depart="144.26" departLane="best" from="4304621#1" to="1021723782"/>
    <trip id="veh34" type="veh_passenger" depart="148.64" departLane="best" departSpeed="max" from="74866600#0" to="232671283"/>
    <trip id="veh35" type="veh_passenger" depart="153.01" departLane="best" departSpeed="max" from="-4412576#1" to="-4843900#1"/>
    <trip id="veh36" type="veh_passenger" depart="157.38" departLane="best" from="239798187#1" to="-547995559#2"/>
    <trip id="veh37" type="veh_passenger" depart="161.75" departLane="best" from="296625650#9" to="74870424#0"/>
    <trip id="veh38" type="veh_passenger" depart="166.12" departLane="best" from="-755409973#3" to="-4412574#4"/>
    <trip id="veh39" type="veh_passenger" depart="170.49" departLane="best" from="984822039#2" to="344108056#1"/>
    <trip id="veh40" type="veh_passenger" depart="174.87" departLane="best" from="-37071741#10" to="-23066907#1"/>
    <trip id="veh42" type="veh_passenger" depart="183.61" departLane="best" from="4412574#6" to="221161287#3"/>
    <trip id="veh43" type="veh_passenger" depart="187.98" departLane="best" from="-236406587#2" to="-975109237#4"/>
    <trip id="veh44" type="veh_passenger" depart="192.35" departLane="best" from="984822039#1" to="37071741#11"/>
    <trip id="veh45" type="veh_passenger" depart="196.72" departLane="best" from="8162716#11" to="5630994#0"/>
    <trip id="veh46" type="veh_passenger" depart="201.10" departLane="best" from="-115954224#1" to="4412240#4"/>
    <trip id="veh47" type="veh_passenger" depart="205.47" departLane="best" from="-4412577#3" to="4339278#1"/>
    <trip id="veh49" type="veh_passenger" depart="214.21" departLane="best" departSpeed="max" from="-890089288" to="8162716#4"/>
    <trip id="veh50" type="veh_passenger" depart="218.58" departLane="best" departSpeed="max" from="560277091#0" to="-547995559#2"/>
    <trip id="veh51" type="veh_passenger" depart="222.95" departLane="best" from="1021723791" to="-4350517#2"/>
    <trip id="veh52" type="veh_passenger" depart="227.33" departLane="best" from="74819595#5" to="5630997#6"/>
    <trip id="veh53" type="veh_passenger" depart="231.70" departLane="best" from="-4843900#1" to="4339275#3"/>
    <trip id="veh54" type="veh_passenger" depart="236.07" departLane="best" from="364976826" to="-4339272#1"/>
    <trip id="veh56" type="veh_passenger" depart="244.81" departLane="best" from="4412240#0" to="37071741#3"/>
    <trip id="veh57" type="veh_passenger" depart="249.18" departLane="best" from="-1021723765" to="-74964923"/>
    <trip id="veh58" type="veh_passenger" depart="253.56" departLane="best" from="-22885305#1" to="77110178#2"/>
    <trip id="veh59" type="veh_passenger" depart="257.93" departLane="best" from="5630990#1" to="557437910#1"/>
    <trip id="veh60" type="veh_passenger" depart="262.30" departLane="best" departSpeed="max" from="-548728428" to="-236406587#7"/>
    <trip id="veh65" type="veh_passenger" depart="284.16" departLane="best" from="-4412577#0" to="627396937"/>
    <trip id="veh66" type="veh_passenger" depart="288.53" departLane="best" departSpeed="max" from="-7715986#1" to="-4412240#0"/>
    <trip id="veh67" type="veh_passenger" depart="292.90" departLane="best" from="23066903#5" to="4412573#1"/>
    <trip id="veh68" type="veh_passenger" depart="297.27" departLane="best" from="-4342248#1" to="-74867370"/>
    <trip id="veh69" type="veh_passenger" depart="301.64" departLane="best" from="984822039#0" to="4340802#5"/>
    <trip id="veh70" type="veh_passenger" depart="306.02" departLane="best" from="-8162716#4" to="348028722#4"/>
    <trip id="veh71" type="veh_passenger" depart="310.39" departLane="best" from="-386521558#1" to="-4412583#0"/>
    <trip id="veh72" type="veh_passenger" depart="314.76" departLane="best" departSpeed="max" from="-557437954#1" to="4304621#2"/>
    <trip id="veh73" type="veh_passenger" depart="319.13" departLane="best" from="-4351499#5" to="-4412575#1"/>
    <trip id="veh74" type="veh_passenger" depart="323.50" departLane="best" from="-239798187#2" to="4339271#2"/>
    <trip id="veh75" type="veh_passenger" depart="327.87" departLane="best" from="-4351499#2" to="74893157"/>
    <trip id="veh76" type="veh_passenger" depart="332.25" departLane="best" from="547999396" to="-33839406#0"/>
    <trip id="veh78" type="veh_passenger" depart="340.99" departLane="best" from="-4350515#0" to="-4338393#2"/>
    <trip id="veh79" type="veh_passenger" depart="345.36" departLane="best" from="755134707#1" to="386521565#2"/>
    <trip id="veh80" type="veh_passenger" depart="349.73" departLane="best" departSpeed="max" from="-984822036" to="4843899#0"/>
    <trip id="veh81" type="veh_passenger" depart="354.10" departLane="best" from="4421899#0" to="-4351499#2"/>
    <trip id="veh82" type="veh_passenger" depart="358.48" departLane="best" from="-37071741#9" to="23066902#4"/>
    <trip id="veh83" type="veh_passenger" depart="362.85" departLane="best" from="4351492#0" to="4350519#1"/>
    <trip id="veh84" type="veh_passenger" depart="367.22" departLane="best" from="890089287#0" to="-386521558#4"/>
    <trip id="veh87" type="veh_passenger" depart="380.33" departLane="best" departSpeed="max" from="-4339278#2" to="23066906"/>
    <trip id="veh92" type="veh_passenger" depart="402.19" departLane="best" from="515013225#4" to="-4342246#2"/>
    <trip id="veh93" type="veh_passenger" depart="406.56" departLane="best" departSpeed="max" from="1021723764" to="-4412240#2"/>
    <trip id="veh94" type="veh_passenger" depart="410.94" departLane="best" from="-755409973#5" to="-236406587#8"/>
    <trip id="veh95" type="veh_passenger" depart="415.31" departLane="best" departSpeed="max" from="-73664550#2" to="975109237#1"/>
    <trip id="veh96" type="veh_passenger" depart="419.68" departLane="best" from="-4412577#0" to="4843899#0"/>
    <trip id="veh97" type="veh_passenger" depart="424.05" departLane="best" departSpeed="max" from="-890089288" to="221161287#4"/>
    <trip id="veh98" type="veh_passenger" depart="428.42" departLane="best" from="77110178#4" to="984822039#0"/>
    <trip id="veh99" type="veh_passenger" depart="432.79" departLane="best" from="236406587#3" to="4412240#2"/>
    <trip id="veh100" type="veh_passenger" depart="437.17" departLane="best" from="-4337663#1" to="-6774980#0"/>
    <trip id="veh101" type="veh_passenger" depart="441.54" departLane="best" from="8162716#0" to="386521579#3"/>
    <trip id="veh102" type="veh_passenger" depart="445.91" departLane="best" from="23066904#2" to="4412583#2"/>
    <trip id="veh103" type="veh_passenger" depart="450.28" departLane="best" departSpeed="max" from="-232671283" to="386521580#1"/>
    <trip id="veh105" type="veh_passenger" depart="459.02" departLane="best" from="-4338393#10" to="8655901"/>
    <trip id="veh106" type="veh_passenger" depart="463.40" departLane="best" from="-348028722#3" to="-4351498#6"/>
    <trip id="veh107" type="veh_passenger" depart="467.77" departLane="best" from="338944336" to="4350520#1"/>
    <trip id="veh108" type="veh_passenger" depart="472.14" departLane="best" from="-4388766#1" to="-386521580#2"/>
    <trip id="veh109" type="veh_passenger" depart="476.51" departLane="best" from="627396940#0" to="-4843899#0"/>
    <trip id="veh110" type="veh_passenger" depart="480.88" departLane="best" from="338944325#3" to="4338398#5"/>
    <trip id="veh111" type="veh_passenger" depart="485.25" departLane="best" from="-7715042#1" to="386521580#1"/>
    <trip id="veh112" type="veh_passenger" depart="489.63" departLane="best" departSpeed="max" from="-4342248#2" to="4411623#1"/>
    <trip id="veh113" type="veh_passenger" depart="494.00" departLane="best" from="4338393#4" to="-6775997"/>
    <trip id="veh114" type="veh_passenger" depart="498.37" departLane="best" from="-548823508#0" to="4412583#5"/>
    <trip id="veh115" type="veh_passenger" depart="502.74" departLane="best" from="-258411877" to="232652554"/>
    <trip id="veh116" type="veh_passenger" depart="507.11" departLane="best" from="-258411878#0" to="-4412240#2"/>
    <trip id="veh117" type="veh_passenger" depart="511.48" departLane="best" from="-4412577#0" to="7715023#2"/>
    <trip id="veh118" type="veh_passenger" depart="515.86" departLane="best" from="5630997#0" to="629591239#1"/>
    <trip id="veh119" type="veh_passenger" depart="520.23" departLane="best" from="-629591239#1" to="-4340802#2"/>
    <trip id="veh120" type="veh_passenger" depart="524.60" departLane="best" from="4936957" to="4388764#1"/>
    <trip id="veh121" type="veh_passenger" depart="528.97" departLane="best" from="37071741#10" to="975109237#4"/>
    <trip id="veh122" type="veh_passenger" depart="533.34" departLane="best" from="4304621#0" to="-1021723764"/>
    <trip id="veh123" type="veh_passenger" depart="537.71" departLane="best" from="4426437" to="-6775997"/>
    <trip id="veh124" type="veh_passenger" depart="542.09" departLane="best" from="4338309" to="7715986#1"/>
    <trip id="veh125" type="veh_passenger" depart="546.46" departLane="best" from="-386521570#1" to="-386521579#5"/>
    <trip id="veh126" type="veh_passenger" depart="550.83" departLane="best" departSpeed="max" from="-4412583#5" to="4338393#7"/>
    <trip id="veh128" type="veh_passenger" depart="559.57" departLane="best" from="386521564#1" to="-547999396"/>
    <trip id="veh129" type="veh_passenger" depart="563.94" departLane="best" departSpeed="max" from="1021723764" to="74893157"/>
    <trip id="veh130" type="veh_passenger" depart="568.32" departLane="best" from="515013225#1" to="-380486113#3"/>
    <trip id="veh131" type="veh_passenger" depart="572.69" departLane="best" from="-1021723782" to="4426434#1"/>
    <trip id="veh132" type="veh_passenger" depart="577.06" departLane="best" from="386521565#0" to="-547995559#0"/>
    <trip id="veh135" type="veh_passenger" depart="590.17" departLane="best" from="-29370985#1" to="629591239#2"/>
    <trip id="veh138" type="veh_passenger" depart="603.29" departLane="best" from="-4304621#1" to="-4322245#0"/>
    <trip id="veh139" type="veh_passenger" depart="607.66" departLane="best" departSpeed="max" from="-548728428" to="74893150#1"/>
    <trip id="veh140" type="veh_passenger" depart="612.03" departLane="best" from="4412583#0" to="5630994#0"/>
    <trip id="veh141" type="veh_passenger" depart="616.40" departLane="best" departSpeed="max" from="6774980#0" to="-4409147#5"/>
    <trip id="veh142" type="veh_passenger" depart="620.78" departLane="best" departSpeed="max" from="-4412240#4" to="-386521564#3"/>
    <trip id="veh143" type="veh_passenger" depart="625.15" departLane="best" from="4412240#2" to="681222114"/>
    <trip id="veh145" type="veh_passenger" depart="633.89" departLane="best" from="-4322246" to="77110178#4"/>
    <trip id="veh146" type="veh_passenger" depart="638.26" departLane="best" from="548823503#0" to="914131622"/>
    <trip id="veh147" type="veh_passenger" depart="642.63" departLane="best" from="4426429#4" to="629591239#2"/>
    <trip id="veh148" type="veh_passenger" depart="647.01" departLane="best" from="-23066901#3" to="4412575#2"/>
    <trip id="veh149" type="veh_passenger" depart="651.38" departLane="best" departSpeed="max" from="-557437910#2" to="77110178#5"/>
    <trip id="veh151" type="veh_passenger" depart="660.12" departLane="best" from="4426429#4" to="-548823503#0"/>
    <trip id="veh152" type="veh_passenger" depart="664.49" departLane="best" from="-4351498#10" to="548823505"/>
    <trip id="veh153" type="veh_passenger" depart="668.86" departLane="best" departSpeed="max" from="-914131622" to="-74866600#0"/>
    <trip id="veh155" type="veh_passenger" depart="677.61" departLane="best" from="-23066901#2" to="-4357266#0"/>
    <trip id="veh156" type="veh_passenger" depart="681.98" departLane="best" departSpeed="max" from="-557437910#2" to="5630994#1"/>
    <trip id="veh157" type="veh_passenger" depart="686.35" departLane="best" from="80821227#1" to="-5630990#1"/>
    <trip id="veh158" type="veh_passenger" depart="690.72" departLane="best" from="386521570#1" to="115954222#0"/>
    <trip id="veh159" type="veh_passenger" depart="695.09" departLane="best" from="8655901" to="37071742#2"/>
    <trip id="veh160" type="veh_passenger" depart="699.47" departLane="best" from="755409973#3" to="-386521579#5"/>
    <trip id="veh161" type="veh_passenger" depart="703.84" departLane="best" from="8162716#10" to="-4350517#2"/>
    <trip id="veh162" type="veh_passenger" depart="708.21" departLane="best" from="7715023#4" to="-548096929"/>
    <trip id="veh164" type="veh_passenger" depart="716.95" departLane="best" from="4351492#0" to="-74870405#1"/>
    <trip id="veh165" type="veh_passenger" depart="721.32" departLane="best" from="364976824#0" to="348028722#0"/>
    <trip id="veh166" type="veh_passenger" depart="725.70" departLane="best" departSpeed="max" from="-74893150#1" to="386521579#0"/>
    <trip id="veh169" type="veh_passenger" depart="738.81" departLane="best" from="23066903#2" to="4412240#3"/>
    <trip id="veh170" type="veh_passenger" depart="743.18" departLane="best" from="4351499#5" to="4350515#1"/>
    <trip id="veh171" type="veh_passenger" depart="747.55" departLane="best" from="-5630997#4" to="-33839406#0"/>
    <trip id="veh172" type="veh_passenger" depart="751.93" departLane="best" from="4338310" to="-755409973#3"/>
    <trip id="veh173" type="veh_passenger" depart="756.30" departLane="best" from="4350513#3" to="-6775997"/>
    <trip id="veh174" type="veh_passenger" depart="760.67" departLane="best" departSpeed="max" from="-548728428" to="128622310#7"/>
    <trip id="veh175" type="veh_passenger" depart="765.04" departLane="best" from="-755409974#1" to="-6774980#0"/>
    <trip id="veh176" type="veh_passenger" depart="769.41" departLane="best" from="-386521564#2" to="221161287#1"/>
    <trip id="veh177" type="veh_passenger" depart="773.78" departLane="best" from="755409973#4" to="4351492#1"/>
    <trip id="veh178" type="veh_passenger" depart="778.16" departLane="best" departSpeed="max" from="6775997" to="4338397#1"/>
    <trip id="veh180" type="veh_passenger" depart="786.90" departLane="best" from="4304621#0" to="233433111#2"/>
    <trip id="veh181" type="veh_passenger" depart="791.27" departLane="best" from="-8162716#9" to="-4412240#2"/>
    <trip id="veh182" type="veh_passenger" depart="795.64" departLane="best" departSpeed="max" from="-984822036" to="74893150#1"/>
    <trip id="veh183" type="veh_passenger" depart="800.01" departLane="best" from="4412583#0" to="-4345684#7"/>
    <trip id="veh184" type="veh_passenger" depart="804.39" departLane="best" from="-364976821#0" to="348028722#4"/>
    <trip id="veh185" type="veh_passenger" depart="808.76" departLane="best" from="386521558#8" to="-755409975#1"/>
    <trip id="veh186" type="veh_passenger" depart="813.13" departLane="best" from="4571486" to="4412583#5"/>
    <trip id="veh187" type="veh_passenger" depart="817.50" departLane="best" from="4338393#7" to="-4412583#0"/>
    <trip id="veh188" type="veh_passenger" depart="821.87" departLane="best" from="-4342246#0" to="-221161287#1"/>
    <trip id="veh189" type="veh_passenger" depart="826.24" departLane="best" from="-4412240#3" to="239798187#2"/>
    <trip id="veh190" type="veh_passenger" depart="830.62" departLane="best" from="515013265" to="-348028722#0"/>
    <trip id="veh191" type="veh_passenger" depart="834.99" departLane="best" from="-77110178#7" to="4339271#2"/>
    <trip id="veh192" type="veh_passenger" depart="839.36" departLane="best" from="-4340802#4" to="4358892#1"/>
    <trip id="veh193" type="veh_passenger" depart="843.73" departLane="best" from="1021723766" to="-4631059#2"/>
    <trip id="veh194" type="veh_passenger" depart="848.10" departLane="best" from="4304621#2" to="-1021723764"/>
    <trip id="veh195" type="veh_passenger" depart="852.47" departLane="best" from="4358892#3" to="4426429#5"/>
    <trip id="veh197" type="veh_passenger" depart="861.22" departLane="best" from="-4338401#2" to="8162716#9"/>
    <trip id="veh198" type="veh_passenger" depart="865.59" departLane="best" from="221161284#1" to="-233433111#0"/>
    <trip id="veh199" type="veh_passenger" depart="869.96" departLane="best" departSpeed="max" from="-4412240#4" to="557437957#2"/>
    <trip id="veh200" type="veh_passenger" depart="874.33" departLane="best" from="-890089289#1" to="515013267"/>
    <trip id="veh201" type="veh_passenger" depart="878.70" departLane="best" from="4338322#2" to="975109237#4"/>
    <trip id="veh202" type="veh_passenger" depart="883.08" departLane="best" from="338944336" to="8162716#1"/>
    <trip id="veh203" type="veh_passenger" depart="887.45" departLane="best" from="627396941#0" to="4338396#1"/>
    <trip id="veh204" type="veh_passenger" depart="891.82" departLane="best" from="4350513#2" to="338944340#0"/>
    <trip id="veh206" type="veh_passenger" depart="900.56" departLane="best" from="629591239#0" to="4412576#1"/>
    <trip id="veh207" type="veh_passenger" depart="904.93" departLane="best" departSpeed="max" from="-984822036" to="-547995558"/>
    <trip id="veh208" type="veh_passenger" depart="909.31" departLane="best" departSpeed="max" from="-4412240#4" to="4339275#3"/>
    <trip id="veh210" type="veh_passenger" depart="918.05" departLane="best" from="-348028722#0" to="-627396937"/>
    <trip id="veh211" type="veh_passenger" depart="922.42" departLane="best" departSpeed="max" from="-4412583#5" to="-74893158"/>
    <trip id="veh212" type="veh_passenger" depart="926.79" departLane="best" from="23066903#8" to="-4338397#0"/>
    <trip id="veh213" type="veh_passenger" depart="931.16" departLane="best" from="-4352946#1" to="4357266#2"/>
    <trip id="veh214" type="veh_passenger" depart="935.54" departLane="best" from="4340802#5" to="-258411878#0"/>
    <trip id="veh216" type="veh_passenger" depart="944.28" departLane="best" from="-7715023#2" to="-4409147#0"/>
    <trip id="veh217" type="veh_passenger" depart="948.65" departLane="best" from="-7715986#0" to="74893157"/>
    <trip id="veh218" type="veh_passenger" depart="953.02" departLane="best" from="296625650#8" to="4358892#0"/>
    <trip id="veh219" type="veh_passenger" depart="957.39" departLane="best" from="547995559#2" to="4421899#0"/>
    <trip id="veh220" type="veh_passenger" depart="961.77" departLane="best" from="-73689161" to="-1021723764"/>
    <trip id="veh222" type="veh_passenger" depart="970.51" departLane="best" departSpeed="max" from="547995558" to="8162716#3"/>
    <trip id="veh223" type="veh_passenger" depart="974.88" departLane="best" from="-7715042#1" to="4412583#1"/>
    <trip id="veh224" type="veh_passenger" depart="979.25" departLane="best" from="23066907#0" to="4338393#4"/>
    <trip id="veh225" type="veh_passenger" depart="983.62" departLane="best" from="-4351496#0" to="-4412574#5"/>
    <trip id="veh226" type="veh_passenger" depart="988.00" departLane="best" from="-8162716#11" to="-22885305#0"/>
    <trip id="veh228" type="veh_passenger" depart="996.74" departLane="best" from="-755409975#1" to="-4342246#1"/>
    <trip id="veh229" type="veh_passenger" depart="1001.11" departLane="best" from="-961883091#0" to="-4322245#0"/>
    <trip id="veh230" type="veh_passenger" depart="1005.48" departLane="best" from="380486112#3" to="-221161287#4"/>
    <trip id="veh231" type="veh_passenger" depart="1009.85" departLane="best" from="-74974754#1" to="386521558#5"/>
    <trip id="veh232" type="veh_passenger" depart="1014.23" departLane="best" departSpeed="max" from="-23066902#4" to="4339278#2"/>
    <trip id="veh233" type="veh_passenger" depart="1018.60" departLane="best" from="-386521570#3" to="232671283"/>
    <trip id="veh234" type="veh_passenger" depart="1022.97" departLane="best" departSpeed="max" from="-23066908#1" to="-975109237#1"/>
    <trip id="veh235" type="veh_passenger" depart="1027.34" departLane="best" from="-4350513#3" to="-75104649#1"/>
    <trip id="veh237" type="veh_passenger" depart="1036.08" departLane="best" from="4358892#4" to="557437910#2"/>
    <trip id="veh238" type="veh_passenger" depart="1040.46" departLane="best" from="-4412574#2" to="-37071741#10"/>
    <trip id="veh239" type="veh_passenger" depart="1044.83" departLane="best" from="-221161287#4" to="380486112#4"/>
    <trip id="veh240" type="veh_passenger" depart="1049.20" departLane="best" from="984822040#3" to="-7715023#1"/>
    <trip id="veh241" type="veh_passenger" depart="1053.57" departLane="best" from="386521579#7" to="4688944#0"/>
    <trip id="veh244" type="veh_passenger" depart="1066.69" departLane="best" from="-386521558#8" to="4350515#0"/>
    <trip id="veh245" type="veh_passenger" depart="1071.06" departLane="best" from="258411877" to="-4412574#3"/>
    <trip id="veh246" type="veh_passenger" depart="1075.43" departLane="best" from="4339275#2" to="4421899#1"/>
    <trip id="veh247" type="veh_passenger" depart="1079.80" departLane="best" from="-4338397#0" to="4338394"/>
    <trip id="veh248" type="veh_passenger" depart="1084.17" departLane="best" from="4358891" to="-386521579#4"/>
    <trip id="veh249" type="veh_passenger" depart="1088.54" departLane="best" from="4631059#1" to="890089287#0"/>
    <trip id="veh251" type="veh_passenger" depart="1097.29" departLane="best" from="-548823503#1" to="4351495#0"/>
    <trip id="veh252" type="veh_passenger" depart="1101.66" departLane="best" from="77110178#5" to="1021723786#1"/>
    <trip id="veh253" type="veh_passenger" depart="1106.03" departLane="best" from="4345684#7" to="-364976821#0"/>
    <trip id="veh254" type="veh_passenger" depart="1110.40" departLane="best" from="4338401#2" to="4339002"/>
    <trip id="veh255" type="veh_passenger" depart="1114.77" departLane="best" from="515013266" to="4338393#1"/>
    <trip id="veh256" type="veh_passenger" depart="1119.15" departLane="best" from="-386521558#1" to="930311974"/>
    <trip id="veh259" type="veh_passenger" depart="1132.26" departLane="best" from="515013265" to="548823513#1"/>
    <trip id="veh260" type="veh_passenger" depart="1136.63" departLane="best" departSpeed="max" from="-380486231#1" to="8655901"/>
    <trip id="veh261" type="veh_passenger" depart="1141.00" departLane="best" from="386521564#3" to="557437899"/>
    <trip id="veh262" type="veh_passenger" depart="1145.38" departLane="best" from="4340802#6" to="23066903#1"/>
    <trip id="veh263" type="veh_passenger" depart="1149.75" departLane="best" from="4351498#1" to="890089287#1"/>
    <trip id="veh264" type="veh_passenger" depart="1154.12" departLane="best" departSpeed="max" from="-4412583#5" to="548728428"/>
    <trip id="veh265" type="veh_passenger" depart="1158.49" departLane="best" from="23066903#2" to="27944036#1"/>
    <trip id="veh266" type="veh_passenger" depart="1162.86" departLane="best" from="-8162716#11" to="4412574#2"/>
    <trip id="veh268" type="veh_passenger" depart="1171.61" departLane="best" from="4843906#1" to="-37071741#7"/>
    <trip id="veh269" type="veh_passenger" depart="1175.98" departLane="best" from="5630997#1" to="-4631059#2"/>
    <trip id="veh270" type="veh_passenger" depart="1180.35" departLane="best" departSpeed="max" from="-914131625#1" to="4338396#1"/>
    <trip id="veh271" type="veh_passenger" depart="1184.72" departLane="best" departSpeed="max" from="-73664550#2" to="-22885305#0"/>
    <trip id="veh272" type="veh_passenger" depart="1189.09" departLane="best" from="515013267" to="-4351496#0"/>
    <trip id="veh273" type="veh_passenger" depart="1193.46" departLane="best" from="-4350513#3" to="515013225#3"/>
    <trip id="veh274" type="veh_passenger" depart="1197.84" departLane="best" departSpeed="max" from="-557437954#1" to="629591239#2"/>
    <trip id="veh275" type="veh_passenger" depart="1202.21" departLane="best" from="4339278#1" to="-560277091#0"/>
    <trip id="veh276" type="veh_passenger" depart="1206.58" departLane="best" from="-1021723792" to="80821261#1"/>
    <trip id="veh277" type="veh_passenger" depart="1210.95" departLane="best" from="-364976821#1" to="4412240#4"/>
    <trip id="veh279" type="veh_passenger" depart="1219.69" departLane="best" from="4338401#2" to="4340723#3"/>
    <trip id="veh280" type="veh_passenger" depart="1224.07" departLane="best" departSpeed="max" from="1021723764" to="515013187"/>
    <trip id="veh281" type="veh_passenger" depart="1228.44" departLane="best" from="-37071741#2" to="-4412576#0"/>
    <trip id="veh282" type="veh_passenger" depart="1232.81" departLane="best" from="4339002" to="-74866600#0"/>
    <trip id="veh283" type="veh_passenger" depart="1237.18" departLane="best" from="296625650#4" to="239798185"/>
    <trip id="veh284" type="veh_passenger" depart="1241.55" departLane="best" from="22885305#1" to="22885305#2"/>
    <trip id="veh285" type="veh_passenger" depart="1245.92" departLane="best" from="4357266#1" to="-755409973#4"/>
    <trip id="veh286" type="veh_passenger" depart="1250.30" departLane="best" from="4340802#1" to="-557437910#0"/>
    <trip id="veh287" type="veh_passenger" depart="1254.67" departLane="best" from="-4412574#1" to="-420060523"/>
    <trip id="veh288" type="veh_passenger" depart="1259.04" departLane="best" from="-4340802#2" to="-386521580#2"/>
    <trip id="veh290" type="veh_passenger" depart="1267.78" departLane="best" from="-4339278#0" to="-4412574#1"/>
    <trip id="veh291" type="veh_passenger" depart="1272.15" departLane="best" departSpeed="max" from="1021723764" to="4412540#1"/>
    <trip id="veh292" type="veh_passenger" depart="1276.53" departLane="best" from="8162716#8" to="364976826"/>
    <trip id="veh295" type="veh_passenger" depart="1289.64" departLane="best" from="-4339275#1" to="-1021723790"/>
    <trip id="veh298" type="veh_passenger" depart="1302.76" departLane="best" from="4339271#1" to="-4304621#6"/>
    <trip id="veh299" type="veh_passenger" depart="1307.13" departLane="best" from="548823513#0" to="296625650#11"/>
    <trip id="veh301" type="veh_passenger" depart="1315.87" departLane="best" from="-975109237#2" to="23066904#11"/>